<?xml version="1.0" encoding="UTF-8"?>

<!-- generated on 2023-03-18 21:42:06.458727 by randomTrips.py UNKNOWN
<configuration>
    <end value="600"/>
    <net-file value="/Users/zixuan/Desktop/UCB/Capstone_AIForTraffic/1028-SUMOnetwork/SUMO_Network.net.xml"/>
    <period value="0.6"/>
    <route-file value="0318LTimeMFlow.rou.xml"/>
</configuration>
-->

<!-- generated on 2023-03-18 21:42:06 by Eclipse SUMO duarouter Version 1.16.0
<configuration xmlns:xsi="http://www.w3.org/2001/XMLSchema-instance" xsi:noNamespaceSchemaLocation="http://sumo.dlr.de/xsd/duarouterConfiguration.xsd">

    <input>
        <net-file value="/Users/zixuan/Desktop/UCB/Capstone_AIForTraffic/1028-SUMOnetwork/SUMO_Network.net.xml"/>
        <route-files value="trips.trips.xml"/>
    </input>

    <output>
        <output-file value="0318LTimeMFlow.rou.xml"/>
        <alternatives-output value="NUL"/>
    </output>

    <time>
        <begin value="0"/>
        <end value="600"/>
    </time>

    <report>
        <no-warnings value="true"/>
        <ignore-errors value="true"/>
        <no-step-log value="true"/>
    </report>

</configuration>
-->

<routes xmlns:xsi="http://www.w3.org/2001/XMLSchema-instance" xsi:noNamespaceSchemaLocation="http://sumo.dlr.de/xsd/routes_file.xsd">
    <vehicle id="0" depart="0.00">
        <route edges="-8 -6 -3 -0"/>
    </vehicle>
    <vehicle id="4" depart="2.40">
        <route edges="-6 -3 -0"/>
    </vehicle>
    <vehicle id="10" depart="6.00">
        <route edges="0 3 6"/>
    </vehicle>
    <vehicle id="11" depart="6.60">
        <route edges="-5 -3"/>
    </vehicle>
    <vehicle id="15" depart="9.00">
        <route edges="0 3 6"/>
    </vehicle>
    <vehicle id="16" depart="9.60">
        <route edges="-7 9"/>
    </vehicle>
    <vehicle id="17" depart="10.20">
        <route edges="-5 4"/>
    </vehicle>
    <vehicle id="19" depart="11.40">
        <route edges="3 4"/>
    </vehicle>
    <vehicle id="20" depart="12.00">
        <route edges="-9 -6 -3 -0"/>
    </vehicle>
    <vehicle id="23" depart="13.80">
        <route edges="-2 1"/>
    </vehicle>
    <vehicle id="24" depart="14.40">
        <route edges="-8 -6 -3 2"/>
    </vehicle>
    <vehicle id="26" depart="15.60">
        <route edges="-4 6 9"/>
    </vehicle>
    <vehicle id="27" depart="16.20">
        <route edges="-8 -6 5"/>
    </vehicle>
    <vehicle id="32" depart="19.20">
        <route edges="3 6 7"/>
    </vehicle>
    <vehicle id="33" depart="19.80">
        <route edges="-3 -0"/>
    </vehicle>
    <vehicle id="37" depart="22.20">
        <route edges="-8 -6 -3 2"/>
    </vehicle>
    <vehicle id="38" depart="22.80">
        <route edges="3"/>
    </vehicle>
    <vehicle id="44" depart="26.40">
        <route edges="-2 -0"/>
    </vehicle>
    <vehicle id="46" depart="27.60">
        <route edges="0 3"/>
    </vehicle>
    <vehicle id="47" depart="28.20">
        <route edges="-1 2"/>
    </vehicle>
    <vehicle id="50" depart="30.00">
        <route edges="-1 3 6"/>
    </vehicle>
    <vehicle id="52" depart="31.20">
        <route edges="-4 5"/>
    </vehicle>
    <vehicle id="58" depart="34.80">
        <route edges="-4 5"/>
    </vehicle>
    <vehicle id="59" depart="35.40">
        <route edges="-8 -6 -3"/>
    </vehicle>
    <vehicle id="60" depart="36.00">
        <route edges="0 3 4"/>
    </vehicle>
    <vehicle id="61" depart="36.60">
        <route edges="0 3 4"/>
    </vehicle>
    <vehicle id="63" depart="37.80">
        <route edges="-1 3 6 9"/>
    </vehicle>
    <vehicle id="64" depart="38.40">
        <route edges="3 6 7"/>
    </vehicle>
    <vehicle id="66" depart="39.60">
        <route edges="3 6 9"/>
    </vehicle>
    <vehicle id="68" depart="40.80">
        <route edges="-1 3 6 7"/>
    </vehicle>
    <vehicle id="72" depart="43.20">
        <route edges="-6"/>
    </vehicle>
    <vehicle id="84" depart="50.40">
        <route edges="-3"/>
    </vehicle>
    <vehicle id="92" depart="55.20">
        <route edges="-5 -3 2"/>
    </vehicle>
    <vehicle id="100" depart="60.00">
        <route edges="6 9"/>
    </vehicle>
    <vehicle id="102" depart="61.20">
        <route edges="-6"/>
    </vehicle>
    <vehicle id="103" depart="61.80">
        <route edges="-5 -3 -0"/>
    </vehicle>
    <vehicle id="105" depart="63.00">
        <route edges="-4 6 7"/>
    </vehicle>
    <vehicle id="107" depart="64.20">
        <route edges="6 9"/>
    </vehicle>
    <vehicle id="109" depart="65.40">
        <route edges="-2 1"/>
    </vehicle>
    <vehicle id="113" depart="67.80">
        <route edges="-7 8"/>
    </vehicle>
    <vehicle id="117" depart="70.20">
        <route edges="-3"/>
    </vehicle>
    <vehicle id="119" depart="71.40">
        <route edges="-8 -6 5"/>
    </vehicle>
    <vehicle id="120" depart="72.00">
        <route edges="-6 5"/>
    </vehicle>
    <vehicle id="121" depart="72.60">
        <route edges="-7 9"/>
    </vehicle>
    <vehicle id="123" depart="73.80">
        <route edges="-3 2"/>
    </vehicle>
    <vehicle id="125" depart="75.00">
        <route edges="-4 6 7"/>
    </vehicle>
    <vehicle id="126" depart="75.60">
        <route edges="-1 3"/>
    </vehicle>
    <vehicle id="127" depart="76.20">
        <route edges="6 9"/>
    </vehicle>
    <vehicle id="129" depart="77.40">
        <route edges="-4 6 9"/>
    </vehicle>
    <vehicle id="131" depart="78.60">
        <route edges="-5 -3"/>
    </vehicle>
    <vehicle id="132" depart="79.20">
        <route edges="3 6"/>
    </vehicle>
    <vehicle id="134" depart="80.40">
        <route edges="-8 -6 -3 -0"/>
    </vehicle>
    <vehicle id="135" depart="81.00">
        <route edges="0 1"/>
    </vehicle>
    <vehicle id="139" depart="83.40">
        <route edges="-4 5"/>
    </vehicle>
    <vehicle id="140" depart="84.00">
        <route edges="-9 -6"/>
    </vehicle>
    <vehicle id="145" depart="87.00">
        <route edges="-1 3 6 7"/>
    </vehicle>
    <vehicle id="148" depart="88.80">
        <route edges="-6 -3 -0"/>
    </vehicle>
    <vehicle id="150" depart="90.00">
        <route edges="3 4"/>
    </vehicle>
    <vehicle id="151" depart="90.60">
        <route edges="3 4"/>
    </vehicle>
    <vehicle id="156" depart="93.60">
        <route edges="-3"/>
    </vehicle>
    <vehicle id="160" depart="96.00">
        <route edges="3 6 9"/>
    </vehicle>
    <vehicle id="162" depart="97.20">
        <route edges="-1 3 6"/>
    </vehicle>
    <vehicle id="163" depart="97.80">
        <route edges="-4 6 9"/>
    </vehicle>
    <vehicle id="165" depart="99.00">
        <route edges="0 1"/>
    </vehicle>
    <vehicle id="174" depart="104.40">
        <route edges="-8 -6 -3 2"/>
    </vehicle>
    <vehicle id="182" depart="109.20">
        <route edges="-5 4"/>
    </vehicle>
    <vehicle id="183" depart="109.80">
        <route edges="-4 6"/>
    </vehicle>
    <vehicle id="184" depart="110.40">
        <route edges="-1 3 6 9"/>
    </vehicle>
    <vehicle id="187" depart="112.20">
        <route edges="-5 -3 -0"/>
    </vehicle>
    <vehicle id="194" depart="116.40">
        <route edges="6"/>
    </vehicle>
    <vehicle id="200" depart="120.00">
        <route edges="-6"/>
    </vehicle>
    <vehicle id="204" depart="122.40">
        <route edges="-8 -6 -3 2"/>
    </vehicle>
    <vehicle id="205" depart="123.00">
        <route edges="0 3 6 7"/>
    </vehicle>
    <vehicle id="206" depart="123.60">
        <route edges="-9 -6"/>
    </vehicle>
    <vehicle id="207" depart="124.20">
        <route edges="-3 -0"/>
    </vehicle>
    <vehicle id="212" depart="127.20">
        <route edges="-6"/>
    </vehicle>
    <vehicle id="213" depart="127.80">
        <route edges="-8 -6 -3 -0"/>
    </vehicle>
    <vehicle id="214" depart="128.40">
        <route edges="0 3 6 7"/>
    </vehicle>
    <vehicle id="224" depart="134.40">
        <route edges="0 3 4"/>
    </vehicle>
    <vehicle id="225" depart="135.00">
        <route edges="3 6"/>
    </vehicle>
    <vehicle id="228" depart="136.80">
        <route edges="0 3 4"/>
    </vehicle>
    <vehicle id="234" depart="140.40">
        <route edges="-9 -6 -3 -0"/>
    </vehicle>
    <vehicle id="235" depart="141.00">
        <route edges="-5 4"/>
    </vehicle>
    <vehicle id="239" depart="143.40">
        <route edges="3 6 7"/>
    </vehicle>
    <vehicle id="240" depart="144.00">
        <route edges="-5 -3 -0"/>
    </vehicle>
    <vehicle id="242" depart="145.20">
        <route edges="3 6 9"/>
    </vehicle>
    <vehicle id="246" depart="147.60">
        <route edges="-6 -3 -0"/>
    </vehicle>
    <vehicle id="248" depart="148.80">
        <route edges="-5 -3"/>
    </vehicle>
    <vehicle id="249" depart="149.40">
        <route edges="-6 -3"/>
    </vehicle>
    <vehicle id="250" depart="150.00">
        <route edges="-8 -6 -3 -0"/>
    </vehicle>
    <vehicle id="251" depart="150.60">
        <route edges="-5 4"/>
    </vehicle>
    <vehicle id="254" depart="152.40">
        <route edges="-1 2"/>
    </vehicle>
    <vehicle id="257" depart="154.20">
        <route edges="0 3 6 7"/>
    </vehicle>
    <vehicle id="259" depart="155.40">
        <route edges="-1 3 4"/>
    </vehicle>
    <vehicle id="261" depart="156.60">
        <route edges="-8 7"/>
    </vehicle>
    <vehicle id="262" depart="157.20">
        <route edges="-8 7"/>
    </vehicle>
    <vehicle id="269" depart="161.40">
        <route edges="-9 -6 -3"/>
    </vehicle>
    <vehicle id="270" depart="162.00">
        <route edges="0 3 6 9"/>
    </vehicle>
    <vehicle id="271" depart="162.60">
        <route edges="-2 -0"/>
    </vehicle>
    <vehicle id="272" depart="163.20">
        <route edges="-4 6"/>
    </vehicle>
    <vehicle id="274" depart="164.40">
        <route edges="-9 -6 -3 -0"/>
    </vehicle>
    <vehicle id="275" depart="165.00">
        <route edges="-9 -6 5"/>
    </vehicle>
    <vehicle id="280" depart="168.00">
        <route edges="-6 -3 2"/>
    </vehicle>
    <vehicle id="282" depart="169.20">
        <route edges="3 6 7"/>
    </vehicle>
    <vehicle id="284" depart="170.40">
        <route edges="-8 7"/>
    </vehicle>
    <vehicle id="287" depart="172.20">
        <route edges="-4 6 7"/>
    </vehicle>
    <vehicle id="293" depart="175.80">
        <route edges="-6 5"/>
    </vehicle>
    <vehicle id="294" depart="176.40">
        <route edges="-5 -3 -0"/>
    </vehicle>
    <vehicle id="299" depart="179.40">
        <route edges="-1 3 6 9"/>
    </vehicle>
    <vehicle id="302" depart="181.20">
        <route edges="-9 -6 5"/>
    </vehicle>
    <vehicle id="311" depart="186.60">
        <route edges="-3"/>
    </vehicle>
    <vehicle id="318" depart="190.80">
        <route edges="-3 -0"/>
    </vehicle>
    <vehicle id="321" depart="192.60">
        <route edges="-9 -6 -3"/>
    </vehicle>
    <vehicle id="322" depart="193.20">
        <route edges="3"/>
    </vehicle>
    <vehicle id="323" depart="193.80">
        <route edges="3 4"/>
    </vehicle>
    <vehicle id="325" depart="195.00">
        <route edges="-3 -0"/>
    </vehicle>
    <vehicle id="337" depart="202.20">
        <route edges="-8 -6 5"/>
    </vehicle>
    <vehicle id="340" depart="204.00">
        <route edges="-8 -6 -3"/>
    </vehicle>
    <vehicle id="341" depart="204.60">
        <route edges="-3 -0"/>
    </vehicle>
    <vehicle id="342" depart="205.20">
        <route edges="-1 3"/>
    </vehicle>
    <vehicle id="352" depart="211.20">
        <route edges="-2 1"/>
    </vehicle>
    <vehicle id="357" depart="214.20">
        <route edges="-6 -3 -0"/>
    </vehicle>
    <vehicle id="358" depart="214.80">
        <route edges="-1 3"/>
    </vehicle>
    <vehicle id="361" depart="216.60">
        <route edges="3 4"/>
    </vehicle>
    <vehicle id="362" depart="217.20">
        <route edges="6 9"/>
    </vehicle>
    <vehicle id="364" depart="218.40">
        <route edges="-1 3 6 7"/>
    </vehicle>
    <vehicle id="365" depart="219.00">
        <route edges="-6 5"/>
    </vehicle>
    <vehicle id="367" depart="220.20">
        <route edges="-8 -6 5"/>
    </vehicle>
    <vehicle id="368" depart="220.80">
        <route edges="-6 -3"/>
    </vehicle>
    <vehicle id="370" depart="222.00">
        <route edges="-9 8"/>
    </vehicle>
    <vehicle id="371" depart="222.60">
        <route edges="-4 6"/>
    </vehicle>
    <vehicle id="372" depart="223.20">
        <route edges="-4 6 9"/>
    </vehicle>
    <vehicle id="373" depart="223.80">
        <route edges="0 3 4"/>
    </vehicle>
    <vehicle id="375" depart="225.00">
        <route edges="-4 6 9"/>
    </vehicle>
    <vehicle id="376" depart="225.60">
        <route edges="-5 4"/>
    </vehicle>
    <vehicle id="379" depart="227.40">
        <route edges="-3 2"/>
    </vehicle>
    <vehicle id="382" depart="229.20">
        <route edges="-7 9"/>
    </vehicle>
    <vehicle id="385" depart="231.00">
        <route edges="-8 -6"/>
    </vehicle>
    <vehicle id="389" depart="233.40">
        <route edges="-6 -3"/>
    </vehicle>
    <vehicle id="390" depart="234.00">
        <route edges="0 3"/>
    </vehicle>
    <vehicle id="397" depart="238.20">
        <route edges="-4 6 7"/>
    </vehicle>
    <vehicle id="402" depart="241.20">
        <route edges="-6 -3"/>
    </vehicle>
    <vehicle id="411" depart="246.60">
        <route edges="-8 7"/>
    </vehicle>
    <vehicle id="413" depart="247.80">
        <route edges="-1 3 4"/>
    </vehicle>
    <vehicle id="415" depart="249.00">
        <route edges="3"/>
    </vehicle>
    <vehicle id="417" depart="250.20">
        <route edges="-9 -6 -3 2"/>
    </vehicle>
    <vehicle id="418" depart="250.80">
        <route edges="-8 -6 -3"/>
    </vehicle>
    <vehicle id="427" depart="256.20">
        <route edges="6 9"/>
    </vehicle>
    <vehicle id="430" depart="258.00">
        <route edges="3"/>
    </vehicle>
    <vehicle id="431" depart="258.60">
        <route edges="-9 8"/>
    </vehicle>
    <vehicle id="432" depart="259.20">
        <route edges="-1 3 6 7"/>
    </vehicle>
    <vehicle id="436" depart="261.60">
        <route edges="-3 -0"/>
    </vehicle>
    <vehicle id="441" depart="264.60">
        <route edges="-1 3 6 7"/>
    </vehicle>
    <vehicle id="442" depart="265.20">
        <route edges="3 6"/>
    </vehicle>
    <vehicle id="447" depart="268.20">
        <route edges="-3 2"/>
    </vehicle>
    <vehicle id="448" depart="268.80">
        <route edges="-6"/>
    </vehicle>
    <vehicle id="456" depart="273.60">
        <route edges="-4 6 7"/>
    </vehicle>
    <vehicle id="457" depart="274.20">
        <route edges="-8 -6 -3 2"/>
    </vehicle>
    <vehicle id="458" depart="274.80">
        <route edges="-8 -6 5"/>
    </vehicle>
    <vehicle id="464" depart="278.40">
        <route edges="-9 -6 -3"/>
    </vehicle>
    <vehicle id="465" depart="279.00">
        <route edges="-4 6"/>
    </vehicle>
    <vehicle id="466" depart="279.60">
        <route edges="-3"/>
    </vehicle>
    <vehicle id="467" depart="280.20">
        <route edges="-7 9"/>
    </vehicle>
    <vehicle id="468" depart="280.80">
        <route edges="-7 8"/>
    </vehicle>
    <vehicle id="469" depart="281.40">
        <route edges="0 1"/>
    </vehicle>
    <vehicle id="470" depart="282.00">
        <route edges="0 3"/>
    </vehicle>
    <vehicle id="471" depart="282.60">
        <route edges="0 3 6"/>
    </vehicle>
    <vehicle id="472" depart="283.20">
        <route edges="-5 -3"/>
    </vehicle>
    <vehicle id="476" depart="285.60">
        <route edges="6 7"/>
    </vehicle>
    <vehicle id="478" depart="286.80">
        <route edges="-1 3 4"/>
    </vehicle>
    <vehicle id="480" depart="288.00">
        <route edges="-9 -6 5"/>
    </vehicle>
    <vehicle id="481" depart="288.60">
        <route edges="0 3 6 9"/>
    </vehicle>
    <vehicle id="484" depart="290.40">
        <route edges="-7 8"/>
    </vehicle>
    <vehicle id="485" depart="291.00">
        <route edges="-3 -0"/>
    </vehicle>
    <vehicle id="494" depart="296.40">
        <route edges="-9 -6 -3"/>
    </vehicle>
    <vehicle id="495" depart="297.00">
        <route edges="-5 -3"/>
    </vehicle>
    <vehicle id="496" depart="297.60">
        <route edges="-6 -3 2"/>
    </vehicle>
    <vehicle id="501" depart="300.60">
        <route edges="-7 9"/>
    </vehicle>
    <vehicle id="502" depart="301.20">
        <route edges="-5 -3 2"/>
    </vehicle>
    <vehicle id="503" depart="301.80">
        <route edges="-3"/>
    </vehicle>
    <vehicle id="504" depart="302.40">
        <route edges="3"/>
    </vehicle>
    <vehicle id="505" depart="303.00">
        <route edges="-8 -6 5"/>
    </vehicle>
    <vehicle id="506" depart="303.60">
        <route edges="-8 -6 -3 -0"/>
    </vehicle>
    <vehicle id="509" depart="305.40">
        <route edges="-1 3 6 7"/>
    </vehicle>
    <vehicle id="516" depart="309.60">
        <route edges="-8 -6 -3 -0"/>
    </vehicle>
    <vehicle id="517" depart="310.20">
        <route edges="-1 3 6 7"/>
    </vehicle>
    <vehicle id="519" depart="311.40">
        <route edges="-3 -0"/>
    </vehicle>
    <vehicle id="522" depart="313.20">
        <route edges="0 3 4"/>
    </vehicle>
    <vehicle id="528" depart="316.80">
        <route edges="-6 -3 2"/>
    </vehicle>
    <vehicle id="534" depart="320.40">
        <route edges="-4 6 9"/>
    </vehicle>
    <vehicle id="536" depart="321.60">
        <route edges="-8 -6 -3"/>
    </vehicle>
    <vehicle id="537" depart="322.20">
        <route edges="-9 8"/>
    </vehicle>
    <vehicle id="538" depart="322.80">
        <route edges="-8 7"/>
    </vehicle>
    <vehicle id="539" depart="323.40">
        <route edges="-9 -6"/>
    </vehicle>
    <vehicle id="540" depart="324.00">
        <route edges="-6"/>
    </vehicle>
    <vehicle id="542" depart="325.20">
        <route edges="-5 -3"/>
    </vehicle>
    <vehicle id="543" depart="325.80">
        <route edges="-6 5"/>
    </vehicle>
    <vehicle id="544" depart="326.40">
        <route edges="-5 -3"/>
    </vehicle>
    <vehicle id="548" depart="328.80">
        <route edges="0 3 4"/>
    </vehicle>
    <vehicle id="554" depart="332.40">
        <route edges="-8 -6 -3 2"/>
    </vehicle>
    <vehicle id="556" depart="333.60">
        <route edges="-8 -6"/>
    </vehicle>
    <vehicle id="560" depart="336.00">
        <route edges="3 6 9"/>
    </vehicle>
    <vehicle id="562" depart="337.20">
        <route edges="-8 -6 -3 -0"/>
    </vehicle>
    <vehicle id="563" depart="337.80">
        <route edges="6 7"/>
    </vehicle>
    <vehicle id="566" depart="339.60">
        <route edges="-5 -3 -0"/>
    </vehicle>
    <vehicle id="567" depart="340.20">
        <route edges="3 4"/>
    </vehicle>
    <vehicle id="568" depart="340.80">
        <route edges="-5 -3"/>
    </vehicle>
    <vehicle id="569" depart="341.40">
        <route edges="-8 -6 -3 -0"/>
    </vehicle>
    <vehicle id="570" depart="342.00">
        <route edges="-9 -6"/>
    </vehicle>
    <vehicle id="571" depart="342.60">
        <route edges="-6 -3 2"/>
    </vehicle>
    <vehicle id="573" depart="343.80">
        <route edges="0 3 4"/>
    </vehicle>
    <vehicle id="574" depart="344.40">
        <route edges="-2 -0"/>
    </vehicle>
    <vehicle id="582" depart="349.20">
        <route edges="-9 -6 -3 -0"/>
    </vehicle>
    <vehicle id="585" depart="351.00">
        <route edges="-3"/>
    </vehicle>
    <vehicle id="587" depart="352.20">
        <route edges="-1 3 6"/>
    </vehicle>
    <vehicle id="588" depart="352.80">
        <route edges="-3 2"/>
    </vehicle>
    <vehicle id="590" depart="354.00">
        <route edges="3 6 7"/>
    </vehicle>
    <vehicle id="596" depart="357.60">
        <route edges="-2 -0"/>
    </vehicle>
    <vehicle id="597" depart="358.20">
        <route edges="-4 6 7"/>
    </vehicle>
    <vehicle id="598" depart="358.80">
        <route edges="-8 7"/>
    </vehicle>
    <vehicle id="610" depart="366.00">
        <route edges="-8 7"/>
    </vehicle>
    <vehicle id="611" depart="366.60">
        <route edges="-8 -6"/>
    </vehicle>
    <vehicle id="612" depart="367.20">
        <route edges="0 3"/>
    </vehicle>
    <vehicle id="613" depart="367.80">
        <route edges="0 3 6 7"/>
    </vehicle>
    <vehicle id="617" depart="370.20">
        <route edges="-8 -6 -3"/>
    </vehicle>
    <vehicle id="618" depart="370.80">
        <route edges="-1 3"/>
    </vehicle>
    <vehicle id="620" depart="372.00">
        <route edges="-1 3 4"/>
    </vehicle>
    <vehicle id="622" depart="373.20">
        <route edges="-1 3 6 7"/>
    </vehicle>
    <vehicle id="627" depart="376.20">
        <route edges="3"/>
    </vehicle>
    <vehicle id="630" depart="378.00">
        <route edges="-2 -0"/>
    </vehicle>
    <vehicle id="642" depart="385.20">
        <route edges="-9 -6 5"/>
    </vehicle>
    <vehicle id="644" depart="386.40">
        <route edges="-5 4"/>
    </vehicle>
    <vehicle id="646" depart="387.60">
        <route edges="6"/>
    </vehicle>
    <vehicle id="650" depart="390.00">
        <route edges="0 3 6"/>
    </vehicle>
    <vehicle id="651" depart="390.60">
        <route edges="0 3 6"/>
    </vehicle>
    <vehicle id="654" depart="392.40">
        <route edges="-5 -3 2"/>
    </vehicle>
    <vehicle id="657" depart="394.20">
        <route edges="-3"/>
    </vehicle>
    <vehicle id="661" depart="396.60">
        <route edges="-1 2"/>
    </vehicle>
    <vehicle id="663" depart="397.80">
        <route edges="-5 -3"/>
    </vehicle>
    <vehicle id="664" depart="398.40">
        <route edges="0 3 6 7"/>
    </vehicle>
    <vehicle id="666" depart="399.60">
        <route edges="-6 -3 2"/>
    </vehicle>
    <vehicle id="667" depart="400.20">
        <route edges="-9 -6"/>
    </vehicle>
    <vehicle id="671" depart="402.60">
        <route edges="0 3"/>
    </vehicle>
    <vehicle id="673" depart="403.80">
        <route edges="6 9"/>
    </vehicle>
    <vehicle id="675" depart="405.00">
        <route edges="-5 4"/>
    </vehicle>
    <vehicle id="676" depart="405.60">
        <route edges="6 7"/>
    </vehicle>
    <vehicle id="678" depart="406.80">
        <route edges="-4 5"/>
    </vehicle>
    <vehicle id="679" depart="407.40">
        <route edges="3 4"/>
    </vehicle>
    <vehicle id="682" depart="409.20">
        <route edges="0 1"/>
    </vehicle>
    <vehicle id="686" depart="411.60">
        <route edges="-5 -3 -0"/>
    </vehicle>
    <vehicle id="687" depart="412.20">
        <route edges="-1 3 4"/>
    </vehicle>
    <vehicle id="689" depart="413.40">
        <route edges="-5 -3 -0"/>
    </vehicle>
    <vehicle id="691" depart="414.60">
        <route edges="-8 7"/>
    </vehicle>
    <vehicle id="692" depart="415.20">
        <route edges="-2 1"/>
    </vehicle>
    <vehicle id="693" depart="415.80">
        <route edges="0 3 6"/>
    </vehicle>
    <vehicle id="695" depart="417.00">
        <route edges="-6 -3 -0"/>
    </vehicle>
    <vehicle id="697" depart="418.20">
        <route edges="3 4"/>
    </vehicle>
    <vehicle id="699" depart="419.40">
        <route edges="-2 1"/>
    </vehicle>
    <vehicle id="702" depart="421.20">
        <route edges="-6 -3"/>
    </vehicle>
    <vehicle id="704" depart="422.40">
        <route edges="-1 3 4"/>
    </vehicle>
    <vehicle id="705" depart="423.00">
        <route edges="-3"/>
    </vehicle>
    <vehicle id="706" depart="423.60">
        <route edges="-6 5"/>
    </vehicle>
    <vehicle id="707" depart="424.20">
        <route edges="-3 2"/>
    </vehicle>
    <vehicle id="708" depart="424.80">
        <route edges="-8 -6 -3"/>
    </vehicle>
    <vehicle id="716" depart="429.60">
        <route edges="-9 -6 5"/>
    </vehicle>
    <vehicle id="717" depart="430.20">
        <route edges="0 3 6"/>
    </vehicle>
    <vehicle id="722" depart="433.20">
        <route edges="-8 7"/>
    </vehicle>
    <vehicle id="723" depart="433.80">
        <route edges="-1 3 6 7"/>
    </vehicle>
    <vehicle id="726" depart="435.60">
        <route edges="-1 3 6 9"/>
    </vehicle>
    <vehicle id="727" depart="436.20">
        <route edges="-7 9"/>
    </vehicle>
    <vehicle id="733" depart="439.80">
        <route edges="3 6"/>
    </vehicle>
    <vehicle id="738" depart="442.80">
        <route edges="-9 -6 -3 -0"/>
    </vehicle>
    <vehicle id="739" depart="443.40">
        <route edges="-8 7"/>
    </vehicle>
    <vehicle id="742" depart="445.20">
        <route edges="-4 5"/>
    </vehicle>
    <vehicle id="744" depart="446.40">
        <route edges="-5 -3 -0"/>
    </vehicle>
    <vehicle id="747" depart="448.20">
        <route edges="6 9"/>
    </vehicle>
    <vehicle id="753" depart="451.80">
        <route edges="-1 3 6 7"/>
    </vehicle>
    <vehicle id="754" depart="452.40">
        <route edges="-5 -3 2"/>
    </vehicle>
    <vehicle id="760" depart="456.00">
        <route edges="-3"/>
    </vehicle>
    <vehicle id="762" depart="457.20">
        <route edges="-5 4"/>
    </vehicle>
    <vehicle id="766" depart="459.60">
        <route edges="-6 -3"/>
    </vehicle>
    <vehicle id="767" depart="460.20">
        <route edges="3"/>
    </vehicle>
    <vehicle id="768" depart="460.80">
        <route edges="3"/>
    </vehicle>
    <vehicle id="771" depart="462.60">
        <route edges="-5 -3 -0"/>
    </vehicle>
    <vehicle id="772" depart="463.20">
        <route edges="-7 8"/>
    </vehicle>
    <vehicle id="773" depart="463.80">
        <route edges="3 6"/>
    </vehicle>
    <vehicle id="775" depart="465.00">
        <route edges="0 3 4"/>
    </vehicle>
    <vehicle id="778" depart="466.80">
        <route edges="-1 3 4"/>
    </vehicle>
    <vehicle id="781" depart="468.60">
        <route edges="-2 1"/>
    </vehicle>
    <vehicle id="782" depart="469.20">
        <route edges="6"/>
    </vehicle>
    <vehicle id="793" depart="475.80">
        <route edges="-4 6"/>
    </vehicle>
    <vehicle id="796" depart="477.60">
        <route edges="-4 5"/>
    </vehicle>
    <vehicle id="806" depart="483.60">
        <route edges="-8 7"/>
    </vehicle>
    <vehicle id="808" depart="484.80">
        <route edges="-6 5"/>
    </vehicle>
    <vehicle id="809" depart="485.40">
        <route edges="-4 6 9"/>
    </vehicle>
    <vehicle id="815" depart="489.00">
        <route edges="-4 6"/>
    </vehicle>
    <vehicle id="816" depart="489.60">
        <route edges="-9 8"/>
    </vehicle>
    <vehicle id="818" depart="490.80">
        <route edges="-5 4"/>
    </vehicle>
    <vehicle id="821" depart="492.60">
        <route edges="-2 1"/>
    </vehicle>
    <vehicle id="824" depart="494.40">
        <route edges="-2 1"/>
    </vehicle>
    <vehicle id="826" depart="495.60">
        <route edges="0 3"/>
    </vehicle>
    <vehicle id="831" depart="498.60">
        <route edges="-5 -3 -0"/>
    </vehicle>
    <vehicle id="834" depart="500.40">
        <route edges="-7 8"/>
    </vehicle>
    <vehicle id="837" depart="502.20">
        <route edges="-5 -3 2"/>
    </vehicle>
    <vehicle id="841" depart="504.60">
        <route edges="-4 6 9"/>
    </vehicle>
    <vehicle id="842" depart="505.20">
        <route edges="-9 -6 -3"/>
    </vehicle>
    <vehicle id="845" depart="507.00">
        <route edges="6 7"/>
    </vehicle>
    <vehicle id="848" depart="508.80">
        <route edges="-2 1"/>
    </vehicle>
    <vehicle id="851" depart="510.60">
        <route edges="-4 5"/>
    </vehicle>
    <vehicle id="856" depart="513.60">
        <route edges="-4 6 7"/>
    </vehicle>
    <vehicle id="859" depart="515.40">
        <route edges="0 3 6"/>
    </vehicle>
    <vehicle id="860" depart="516.00">
        <route edges="-9 -6 -3 -0"/>
    </vehicle>
    <vehicle id="862" depart="517.20">
        <route edges="0 3 6 7"/>
    </vehicle>
    <vehicle id="864" depart="518.40">
        <route edges="-8 -6"/>
    </vehicle>
    <vehicle id="865" depart="519.00">
        <route edges="-8 -6 5"/>
    </vehicle>
    <vehicle id="867" depart="520.20">
        <route edges="-9 -6 -3 -0"/>
    </vehicle>
    <vehicle id="873" depart="523.80">
        <route edges="-9 -6 -3 -0"/>
    </vehicle>
    <vehicle id="875" depart="525.00">
        <route edges="-4 5"/>
    </vehicle>
    <vehicle id="878" depart="526.80">
        <route edges="-5 -3 2"/>
    </vehicle>
    <vehicle id="879" depart="527.40">
        <route edges="0 3 6"/>
    </vehicle>
    <vehicle id="881" depart="528.60">
        <route edges="-8 -6"/>
    </vehicle>
    <vehicle id="887" depart="532.20">
        <route edges="6 7"/>
    </vehicle>
    <vehicle id="889" depart="533.40">
        <route edges="-9 -6 -3 2"/>
    </vehicle>
    <vehicle id="890" depart="534.00">
        <route edges="6 7"/>
    </vehicle>
    <vehicle id="891" depart="534.60">
        <route edges="6 7"/>
    </vehicle>
    <vehicle id="893" depart="535.80">
        <route edges="-9 -6 -3 2"/>
    </vehicle>
    <vehicle id="895" depart="537.00">
        <route edges="-6"/>
    </vehicle>
    <vehicle id="896" depart="537.60">
        <route edges="-7 9"/>
    </vehicle>
    <vehicle id="897" depart="538.20">
        <route edges="-9 -6 -3"/>
    </vehicle>
    <vehicle id="898" depart="538.80">
        <route edges="-8 -6 5"/>
    </vehicle>
    <vehicle id="901" depart="540.60">
        <route edges="-1 2"/>
    </vehicle>
    <vehicle id="902" depart="541.20">
        <route edges="-9 -6 -3"/>
    </vehicle>
    <vehicle id="904" depart="542.40">
        <route edges="-7 9"/>
    </vehicle>
    <vehicle id="906" depart="543.60">
        <route edges="3"/>
    </vehicle>
    <vehicle id="908" depart="544.80">
        <route edges="-4 5"/>
    </vehicle>
    <vehicle id="914" depart="548.40">
        <route edges="6 9"/>
    </vehicle>
    <vehicle id="916" depart="549.60">
        <route edges="6 9"/>
    </vehicle>
    <vehicle id="918" depart="550.80">
        <route edges="-1 3 4"/>
    </vehicle>