<?xml version="1.0" encoding="UTF-8"?>

<!-- generated on 2023-03-18 21:42:32.554198 by randomTrips.py UNKNOWN
<configuration>
    <end value="600"/>
    <net-file value="/Users/zixuan/Desktop/UCB/Capstone_AIForTraffic/1028-SUMOnetwork/SUMO_Network.net.xml"/>
    <period value="0.3"/>
    <route-file value="0318LTimeHFlow.rou.xml"/>
</configuration>
-->

<!-- generated on 2023-03-18 21:42:32 by Eclipse SUMO duarouter Version 1.16.0
<configuration xmlns:xsi="http://www.w3.org/2001/XMLSchema-instance" xsi:noNamespaceSchemaLocation="http://sumo.dlr.de/xsd/duarouterConfiguration.xsd">

    <input>
        <net-file value="/Users/zixuan/Desktop/UCB/Capstone_AIForTraffic/1028-SUMOnetwork/SUMO_Network.net.xml"/>
        <route-files value="trips.trips.xml"/>
    </input>

    <output>
        <output-file value="0318LTimeHFlow.rou.xml"/>
        <alternatives-output value="NUL"/>
    </output>

    <time>
        <begin value="0"/>
        <end value="600"/>
    </time>

    <report>
        <no-warnings value="true"/>
        <ignore-errors value="true"/>
        <no-step-log value="true"/>
    </report>

</configuration>
-->

<routes xmlns:xsi="http://www.w3.org/2001/XMLSchema-instance" xsi:noNamespaceSchemaLocation="http://sumo.dlr.de/xsd/routes_file.xsd">
    <vehicle id="0" depart="0.00">
        <route edges="-8 -6 -3 -0"/>
    </vehicle>
    <vehicle id="4" depart="1.20">
        <route edges="-6 -3 -0"/>
    </vehicle>
    <vehicle id="10" depart="3.00">
        <route edges="0 3 6"/>
    </vehicle>
    <vehicle id="11" depart="3.30">
        <route edges="-5 -3"/>
    </vehicle>
    <vehicle id="15" depart="4.50">
        <route edges="0 3 6"/>
    </vehicle>
    <vehicle id="16" depart="4.80">
        <route edges="-7 9"/>
    </vehicle>
    <vehicle id="17" depart="5.10">
        <route edges="-5 4"/>
    </vehicle>
    <vehicle id="19" depart="5.70">
        <route edges="3 4"/>
    </vehicle>
    <vehicle id="20" depart="6.00">
        <route edges="-9 -6 -3 -0"/>
    </vehicle>
    <vehicle id="23" depart="6.90">
        <route edges="-2 1"/>
    </vehicle>
    <vehicle id="24" depart="7.20">
        <route edges="-8 -6 -3 2"/>
    </vehicle>
    <vehicle id="26" depart="7.80">
        <route edges="-4 6 9"/>
    </vehicle>
    <vehicle id="27" depart="8.10">
        <route edges="-8 -6 5"/>
    </vehicle>
    <vehicle id="32" depart="9.60">
        <route edges="3 6 7"/>
    </vehicle>
    <vehicle id="33" depart="9.90">
        <route edges="-3 -0"/>
    </vehicle>
    <vehicle id="37" depart="11.10">
        <route edges="-8 -6 -3 2"/>
    </vehicle>
    <vehicle id="38" depart="11.40">
        <route edges="3"/>
    </vehicle>
    <vehicle id="44" depart="13.20">
        <route edges="-2 -0"/>
    </vehicle>
    <vehicle id="46" depart="13.80">
        <route edges="0 3"/>
    </vehicle>
    <vehicle id="47" depart="14.10">
        <route edges="-1 2"/>
    </vehicle>
    <vehicle id="50" depart="15.00">
        <route edges="-1 3 6"/>
    </vehicle>
    <vehicle id="52" depart="15.60">
        <route edges="-4 5"/>
    </vehicle>
    <vehicle id="58" depart="17.40">
        <route edges="-4 5"/>
    </vehicle>
    <vehicle id="59" depart="17.70">
        <route edges="-8 -6 -3"/>
    </vehicle>
    <vehicle id="60" depart="18.00">
        <route edges="0 3 4"/>
    </vehicle>
    <vehicle id="61" depart="18.30">
        <route edges="0 3 4"/>
    </vehicle>
    <vehicle id="63" depart="18.90">
        <route edges="-1 3 6 9"/>
    </vehicle>
    <vehicle id="64" depart="19.20">
        <route edges="3 6 7"/>
    </vehicle>
    <vehicle id="66" depart="19.80">
        <route edges="3 6 9"/>
    </vehicle>
    <vehicle id="68" depart="20.40">
        <route edges="-1 3 6 7"/>
    </vehicle>
    <vehicle id="72" depart="21.60">
        <route edges="-6"/>
    </vehicle>
    <vehicle id="84" depart="25.20">
        <route edges="-3"/>
    </vehicle>
    <vehicle id="92" depart="27.60">
        <route edges="-5 -3 2"/>
    </vehicle>
    <vehicle id="100" depart="30.00">
        <route edges="6 9"/>
    </vehicle>
    <vehicle id="102" depart="30.60">
        <route edges="-6"/>
    </vehicle>
    <vehicle id="103" depart="30.90">
        <route edges="-5 -3 -0"/>
    </vehicle>
    <vehicle id="105" depart="31.50">
        <route edges="-4 6 7"/>
    </vehicle>
    <vehicle id="107" depart="32.10">
        <route edges="6 9"/>
    </vehicle>
    <vehicle id="109" depart="32.70">
        <route edges="-2 1"/>
    </vehicle>
    <vehicle id="113" depart="33.90">
        <route edges="-7 8"/>
    </vehicle>
    <vehicle id="117" depart="35.10">
        <route edges="-3"/>
    </vehicle>
    <vehicle id="119" depart="35.70">
        <route edges="-8 -6 5"/>
    </vehicle>
    <vehicle id="120" depart="36.00">
        <route edges="-6 5"/>
    </vehicle>
    <vehicle id="121" depart="36.30">
        <route edges="-7 9"/>
    </vehicle>
    <vehicle id="123" depart="36.90">
        <route edges="-3 2"/>
    </vehicle>
    <vehicle id="125" depart="37.50">
        <route edges="-4 6 7"/>
    </vehicle>
    <vehicle id="126" depart="37.80">
        <route edges="-1 3"/>
    </vehicle>
    <vehicle id="127" depart="38.10">
        <route edges="6 9"/>
    </vehicle>
    <vehicle id="129" depart="38.70">
        <route edges="-4 6 9"/>
    </vehicle>
    <vehicle id="131" depart="39.30">
        <route edges="-5 -3"/>
    </vehicle>
    <vehicle id="132" depart="39.60">
        <route edges="3 6"/>
    </vehicle>
    <vehicle id="134" depart="40.20">
        <route edges="-8 -6 -3 -0"/>
    </vehicle>
    <vehicle id="135" depart="40.50">
        <route edges="0 1"/>
    </vehicle>
    <vehicle id="139" depart="41.70">
        <route edges="-4 5"/>
    </vehicle>
    <vehicle id="140" depart="42.00">
        <route edges="-9 -6"/>
    </vehicle>
    <vehicle id="145" depart="43.50">
        <route edges="-1 3 6 7"/>
    </vehicle>
    <vehicle id="148" depart="44.40">
        <route edges="-6 -3 -0"/>
    </vehicle>
    <vehicle id="150" depart="45.00">
        <route edges="3 4"/>
    </vehicle>
    <vehicle id="151" depart="45.30">
        <route edges="3 4"/>
    </vehicle>
    <vehicle id="156" depart="46.80">
        <route edges="-3"/>
    </vehicle>
    <vehicle id="160" depart="48.00">
        <route edges="3 6 9"/>
    </vehicle>
    <vehicle id="162" depart="48.60">
        <route edges="-1 3 6"/>
    </vehicle>
    <vehicle id="163" depart="48.90">
        <route edges="-4 6 9"/>
    </vehicle>
    <vehicle id="165" depart="49.50">
        <route edges="0 1"/>
    </vehicle>
    <vehicle id="174" depart="52.20">
        <route edges="-8 -6 -3 2"/>
    </vehicle>
    <vehicle id="182" depart="54.60">
        <route edges="-5 4"/>
    </vehicle>
    <vehicle id="183" depart="54.90">
        <route edges="-4 6"/>
    </vehicle>
    <vehicle id="184" depart="55.20">
        <route edges="-1 3 6 9"/>
    </vehicle>
    <vehicle id="187" depart="56.10">
        <route edges="-5 -3 -0"/>
    </vehicle>
    <vehicle id="194" depart="58.20">
        <route edges="6"/>
    </vehicle>
    <vehicle id="200" depart="60.00">
        <route edges="-6"/>
    </vehicle>
    <vehicle id="204" depart="61.20">
        <route edges="-8 -6 -3 2"/>
    </vehicle>
    <vehicle id="205" depart="61.50">
        <route edges="0 3 6 7"/>
    </vehicle>
    <vehicle id="206" depart="61.80">
        <route edges="-9 -6"/>
    </vehicle>
    <vehicle id="207" depart="62.10">
        <route edges="-3 -0"/>
    </vehicle>
    <vehicle id="212" depart="63.60">
        <route edges="-6"/>
    </vehicle>
    <vehicle id="213" depart="63.90">
        <route edges="-8 -6 -3 -0"/>
    </vehicle>
    <vehicle id="214" depart="64.20">
        <route edges="0 3 6 7"/>
    </vehicle>
    <vehicle id="224" depart="67.20">
        <route edges="0 3 4"/>
    </vehicle>
    <vehicle id="225" depart="67.50">
        <route edges="3 6"/>
    </vehicle>
    <vehicle id="228" depart="68.40">
        <route edges="0 3 4"/>
    </vehicle>
    <vehicle id="234" depart="70.20">
        <route edges="-9 -6 -3 -0"/>
    </vehicle>
    <vehicle id="235" depart="70.50">
        <route edges="-5 4"/>
    </vehicle>
    <vehicle id="239" depart="71.70">
        <route edges="3 6 7"/>
    </vehicle>
    <vehicle id="240" depart="72.00">
        <route edges="-5 -3 -0"/>
    </vehicle>
    <vehicle id="242" depart="72.60">
        <route edges="3 6 9"/>
    </vehicle>
    <vehicle id="246" depart="73.80">
        <route edges="-6 -3 -0"/>
    </vehicle>
    <vehicle id="248" depart="74.40">
        <route edges="-5 -3"/>
    </vehicle>
    <vehicle id="249" depart="74.70">
        <route edges="-6 -3"/>
    </vehicle>
    <vehicle id="250" depart="75.00">
        <route edges="-8 -6 -3 -0"/>
    </vehicle>
    <vehicle id="251" depart="75.30">
        <route edges="-5 4"/>
    </vehicle>
    <vehicle id="254" depart="76.20">
        <route edges="-1 2"/>
    </vehicle>
    <vehicle id="257" depart="77.10">
        <route edges="0 3 6 7"/>
    </vehicle>
    <vehicle id="259" depart="77.70">
        <route edges="-1 3 4"/>
    </vehicle>
    <vehicle id="261" depart="78.30">
        <route edges="-8 7"/>
    </vehicle>
    <vehicle id="262" depart="78.60">
        <route edges="-8 7"/>
    </vehicle>
    <vehicle id="267" depart="80.10">
        <route edges="-9 7"/>
    </vehicle>
    <vehicle id="269" depart="80.70">
        <route edges="-9 -6 -3"/>
    </vehicle>
    <vehicle id="270" depart="81.00">
        <route edges="0 3 6 9"/>
    </vehicle>
    <vehicle id="271" depart="81.30">
        <route edges="-2 -0"/>
    </vehicle>
    <vehicle id="272" depart="81.60">
        <route edges="-4 6"/>
    </vehicle>
    <vehicle id="274" depart="82.20">
        <route edges="-9 -6 -3 -0"/>
    </vehicle>
    <vehicle id="275" depart="82.50">
        <route edges="-9 -6 5"/>
    </vehicle>
    <vehicle id="280" depart="84.00">
        <route edges="-6 -3 2"/>
    </vehicle>
    <vehicle id="282" depart="84.60">
        <route edges="3 6 7"/>
    </vehicle>
    <vehicle id="284" depart="85.20">
        <route edges="-8 7"/>
    </vehicle>
    <vehicle id="287" depart="86.10">
        <route edges="-4 6 7"/>
    </vehicle>
    <vehicle id="293" depart="87.90">
        <route edges="-6 5"/>
    </vehicle>
    <vehicle id="294" depart="88.20">
        <route edges="-5 -3 -0"/>
    </vehicle>
    <vehicle id="299" depart="89.70">
        <route edges="-1 3 6 9"/>
    </vehicle>
    <vehicle id="302" depart="90.60">
        <route edges="-9 -6 5"/>
    </vehicle>
    <vehicle id="311" depart="93.30">
        <route edges="-3"/>
    </vehicle>
    <vehicle id="318" depart="95.40">
        <route edges="-3 -0"/>
    </vehicle>
    <vehicle id="321" depart="96.30">
        <route edges="-9 -6 -3"/>
    </vehicle>
    <vehicle id="322" depart="96.60">
        <route edges="3"/>
    </vehicle>
    <vehicle id="323" depart="96.90">
        <route edges="3 4"/>
    </vehicle>
    <vehicle id="325" depart="97.50">
        <route edges="-3 -0"/>
    </vehicle>
    <vehicle id="337" depart="101.10">
        <route edges="-8 -6 5"/>
    </vehicle>
    <vehicle id="340" depart="102.00">
        <route edges="-8 -6 -3"/>
    </vehicle>
    <vehicle id="341" depart="102.30">
        <route edges="-3 -0"/>
    </vehicle>
    <vehicle id="342" depart="102.60">
        <route edges="-1 3"/>
    </vehicle>
    <vehicle id="352" depart="105.60">
        <route edges="-2 1"/>
    </vehicle>
    <vehicle id="357" depart="107.10">
        <route edges="-6 -3 -0"/>
    </vehicle>
    <vehicle id="358" depart="107.40">
        <route edges="-1 3"/>
    </vehicle>
    <vehicle id="361" depart="108.30">
        <route edges="3 4"/>
    </vehicle>
    <vehicle id="362" depart="108.60">
        <route edges="6 9"/>
    </vehicle>
    <vehicle id="364" depart="109.20">
        <route edges="-1 3 6 7"/>
    </vehicle>
    <vehicle id="365" depart="109.50">
        <route edges="-6 5"/>
    </vehicle>
    <vehicle id="367" depart="110.10">
        <route edges="-8 -6 5"/>
    </vehicle>
    <vehicle id="368" depart="110.40">
        <route edges="-6 -3"/>
    </vehicle>
    <vehicle id="370" depart="111.00">
        <route edges="-9 8"/>
    </vehicle>
    <vehicle id="371" depart="111.30">
        <route edges="-4 6"/>
    </vehicle>
    <vehicle id="372" depart="111.60">
        <route edges="-4 6 9"/>
    </vehicle>
    <vehicle id="373" depart="111.90">
        <route edges="0 3 4"/>
    </vehicle>
    <vehicle id="375" depart="112.50">
        <route edges="-4 6 9"/>
    </vehicle>
    <vehicle id="376" depart="112.80">
        <route edges="-5 4"/>
    </vehicle>
    <vehicle id="379" depart="113.70">
        <route edges="-3 2"/>
    </vehicle>
    <vehicle id="382" depart="114.60">
        <route edges="-7 9"/>
    </vehicle>
    <vehicle id="385" depart="115.50">
        <route edges="-8 -6"/>
    </vehicle>
    <vehicle id="389" depart="116.70">
        <route edges="-6 -3"/>
    </vehicle>
    <vehicle id="390" depart="117.00">
        <route edges="0 3"/>
    </vehicle>
    <vehicle id="397" depart="119.10">
        <route edges="-4 6 7"/>
    </vehicle>
    <vehicle id="402" depart="120.60">
        <route edges="-6 -3"/>
    </vehicle>
    <vehicle id="411" depart="123.30">
        <route edges="-8 7"/>
    </vehicle>
    <vehicle id="413" depart="123.90">
        <route edges="-1 3 4"/>
    </vehicle>
    <vehicle id="415" depart="124.50">
        <route edges="3"/>
    </vehicle>
    <vehicle id="417" depart="125.10">
        <route edges="-9 -6 -3 2"/>
    </vehicle>
    <vehicle id="418" depart="125.40">
        <route edges="-8 -6 -3"/>
    </vehicle>
    <vehicle id="424" depart="127.20">
        <route edges="-9 7"/>
    </vehicle>
    <vehicle id="427" depart="128.10">
        <route edges="6 9"/>
    </vehicle>
    <vehicle id="430" depart="129.00">
        <route edges="3"/>
    </vehicle>
    <vehicle id="431" depart="129.30">
        <route edges="-9 8"/>
    </vehicle>
    <vehicle id="432" depart="129.60">
        <route edges="-1 3 6 7"/>
    </vehicle>
    <vehicle id="436" depart="130.80">
        <route edges="-3 -0"/>
    </vehicle>
    <vehicle id="441" depart="132.30">
        <route edges="-1 3 6 7"/>
    </vehicle>
    <vehicle id="442" depart="132.60">
        <route edges="3 6"/>
    </vehicle>
    <vehicle id="447" depart="134.10">
        <route edges="-3 2"/>
    </vehicle>
    <vehicle id="448" depart="134.40">
        <route edges="-6"/>
    </vehicle>
    <vehicle id="456" depart="136.80">
        <route edges="-4 6 7"/>
    </vehicle>
    <vehicle id="457" depart="137.10">
        <route edges="-8 -6 -3 2"/>
    </vehicle>
    <vehicle id="458" depart="137.40">
        <route edges="-8 -6 5"/>
    </vehicle>
    <vehicle id="464" depart="139.20">
        <route edges="-9 -6 -3"/>
    </vehicle>
    <vehicle id="465" depart="139.50">
        <route edges="-4 6"/>
    </vehicle>
    <vehicle id="466" depart="139.80">
        <route edges="-3"/>
    </vehicle>
    <vehicle id="467" depart="140.10">
        <route edges="-7 9"/>
    </vehicle>
    <vehicle id="468" depart="140.40">
        <route edges="-7 8"/>
    </vehicle>
    <vehicle id="469" depart="140.70">
        <route edges="0 1"/>
    </vehicle>
    <vehicle id="470" depart="141.00">
        <route edges="0 3"/>
    </vehicle>
    <vehicle id="471" depart="141.30">
        <route edges="0 3 6"/>
    </vehicle>
    <vehicle id="472" depart="141.60">
        <route edges="-5 -3"/>
    </vehicle>
    <vehicle id="476" depart="142.80">
        <route edges="6 7"/>
    </vehicle>
    <vehicle id="478" depart="143.40">
        <route edges="-1 3 4"/>
    </vehicle>
    <vehicle id="480" depart="144.00">
        <route edges="-9 -6 5"/>
    </vehicle>
    <vehicle id="481" depart="144.30">
        <route edges="0 3 6 9"/>
    </vehicle>
    <vehicle id="484" depart="145.20">
        <route edges="-7 8"/>
    </vehicle>
    <vehicle id="485" depart="145.50">
        <route edges="-3 -0"/>
    </vehicle>
    <vehicle id="494" depart="148.20">
        <route edges="-9 -6 -3"/>
    </vehicle>
    <vehicle id="495" depart="148.50">
        <route edges="-5 -3"/>
    </vehicle>
    <vehicle id="496" depart="148.80">
        <route edges="-6 -3 2"/>
    </vehicle>
    <vehicle id="501" depart="150.30">
        <route edges="-7 9"/>
    </vehicle>
    <vehicle id="502" depart="150.60">
        <route edges="-5 -3 2"/>
    </vehicle>
    <vehicle id="503" depart="150.90">
        <route edges="-3"/>
    </vehicle>
    <vehicle id="504" depart="151.20">
        <route edges="3"/>
    </vehicle>
    <vehicle id="505" depart="151.50">
        <route edges="-8 -6 5"/>
    </vehicle>
    <vehicle id="506" depart="151.80">
        <route edges="-8 -6 -3 -0"/>
    </vehicle>
    <vehicle id="509" depart="152.70">
        <route edges="-1 3 6 7"/>
    </vehicle>
    <vehicle id="516" depart="154.80">
        <route edges="-8 -6 -3 -0"/>
    </vehicle>
    <vehicle id="517" depart="155.10">
        <route edges="-1 3 6 7"/>
    </vehicle>
    <vehicle id="519" depart="155.70">
        <route edges="-3 -0"/>
    </vehicle>
    <vehicle id="522" depart="156.60">
        <route edges="0 3 4"/>
    </vehicle>
    <vehicle id="528" depart="158.40">
        <route edges="-6 -3 2"/>
    </vehicle>
    <vehicle id="534" depart="160.20">
        <route edges="-4 6 9"/>
    </vehicle>
    <vehicle id="536" depart="160.80">
        <route edges="-8 -6 -3"/>
    </vehicle>
    <vehicle id="537" depart="161.10">
        <route edges="-9 8"/>
    </vehicle>
    <vehicle id="538" depart="161.40">
        <route edges="-8 7"/>
    </vehicle>
    <vehicle id="539" depart="161.70">
        <route edges="-9 -6"/>
    </vehicle>
    <vehicle id="540" depart="162.00">
        <route edges="-6"/>
    </vehicle>
    <vehicle id="542" depart="162.60">
        <route edges="-5 -3"/>
    </vehicle>
    <vehicle id="543" depart="162.90">
        <route edges="-6 5"/>
    </vehicle>
    <vehicle id="544" depart="163.20">
        <route edges="-5 -3"/>
    </vehicle>
    <vehicle id="548" depart="164.40">
        <route edges="0 3 4"/>
    </vehicle>
    <vehicle id="554" depart="166.20">
        <route edges="-8 -6 -3 2"/>
    </vehicle>
    <vehicle id="556" depart="166.80">
        <route edges="-8 -6"/>
    </vehicle>
    <vehicle id="560" depart="168.00">
        <route edges="3 6 9"/>
    </vehicle>
    <vehicle id="562" depart="168.60">
        <route edges="-8 -6 -3 -0"/>
    </vehicle>
    <vehicle id="563" depart="168.90">
        <route edges="6 7"/>
    </vehicle>
    <vehicle id="566" depart="169.80">
        <route edges="-5 -3 -0"/>
    </vehicle>
    <vehicle id="567" depart="170.10">
        <route edges="3 4"/>
    </vehicle>
    <vehicle id="568" depart="170.40">
        <route edges="-5 -3"/>
    </vehicle>
    <vehicle id="569" depart="170.70">
        <route edges="-8 -6 -3 -0"/>
    </vehicle>
    <vehicle id="570" depart="171.00">
        <route edges="-9 -6"/>
    </vehicle>
    <vehicle id="571" depart="171.30">
        <route edges="-6 -3 2"/>
    </vehicle>
    <vehicle id="573" depart="171.90">
        <route edges="0 3 4"/>
    </vehicle>
    <vehicle id="574" depart="172.20">
        <route edges="-2 -0"/>
    </vehicle>
    <vehicle id="582" depart="174.60">
        <route edges="-9 -6 -3 -0"/>
    </vehicle>
    <vehicle id="585" depart="175.50">
        <route edges="-3"/>
    </vehicle>
    <vehicle id="587" depart="176.10">
        <route edges="-1 3 6"/>
    </vehicle>
    <vehicle id="588" depart="176.40">
        <route edges="-3 2"/>
    </vehicle>
    <vehicle id="590" depart="177.00">
        <route edges="3 6 7"/>
    </vehicle>
    <vehicle id="596" depart="178.80">
        <route edges="-2 -0"/>
    </vehicle>
    <vehicle id="597" depart="179.10">
        <route edges="-4 6 7"/>
    </vehicle>
    <vehicle id="598" depart="179.40">
        <route edges="-8 7"/>
    </vehicle>
    <vehicle id="607" depart="182.10">
        <route edges="-9 7"/>
    </vehicle>
    <vehicle id="610" depart="183.00">
        <route edges="-8 7"/>
    </vehicle>
    <vehicle id="611" depart="183.30">
        <route edges="-8 -6"/>
    </vehicle>
    <vehicle id="612" depart="183.60">
        <route edges="0 3"/>
    </vehicle>
    <vehicle id="613" depart="183.90">
        <route edges="0 3 6 7"/>
    </vehicle>
    <vehicle id="617" depart="185.10">
        <route edges="-8 -6 -3"/>
    </vehicle>
    <vehicle id="618" depart="185.40">
        <route edges="-1 3"/>
    </vehicle>
    <vehicle id="620" depart="186.00">
        <route edges="-1 3 4"/>
    </vehicle>
    <vehicle id="622" depart="186.60">
        <route edges="-1 3 6 7"/>
    </vehicle>
    <vehicle id="627" depart="188.10">
        <route edges="3"/>
    </vehicle>
    <vehicle id="630" depart="189.00">
        <route edges="-2 -0"/>
    </vehicle>
    <vehicle id="642" depart="192.60">
        <route edges="-9 -6 5"/>
    </vehicle>
    <vehicle id="644" depart="193.20">
        <route edges="-5 4"/>
    </vehicle>
    <vehicle id="646" depart="193.80">
        <route edges="6"/>
    </vehicle>
    <vehicle id="650" depart="195.00">
        <route edges="0 3 6"/>
    </vehicle>
    <vehicle id="651" depart="195.30">
        <route edges="0 3 6"/>
    </vehicle>
    <vehicle id="654" depart="196.20">
        <route edges="-5 -3 2"/>
    </vehicle>
    <vehicle id="657" depart="197.10">
        <route edges="-3"/>
    </vehicle>
    <vehicle id="661" depart="198.30">
        <route edges="-1 2"/>
    </vehicle>
    <vehicle id="663" depart="198.90">
        <route edges="-5 -3"/>
    </vehicle>
    <vehicle id="664" depart="199.20">
        <route edges="0 3 6 7"/>
    </vehicle>
    <vehicle id="666" depart="199.80">
        <route edges="-6 -3 2"/>
    </vehicle>
    <vehicle id="667" depart="200.10">
        <route edges="-9 -6"/>
    </vehicle>
    <vehicle id="671" depart="201.30">
        <route edges="0 3"/>
    </vehicle>
    <vehicle id="673" depart="201.90">
        <route edges="6 9"/>
    </vehicle>
    <vehicle id="675" depart="202.50">
        <route edges="-5 4"/>
    </vehicle>
    <vehicle id="676" depart="202.80">
        <route edges="6 7"/>
    </vehicle>
    <vehicle id="678" depart="203.40">
        <route edges="-4 5"/>
    </vehicle>
    <vehicle id="679" depart="203.70">
        <route edges="3 4"/>
    </vehicle>
    <vehicle id="682" depart="204.60">
        <route edges="0 1"/>
    </vehicle>
    <vehicle id="686" depart="205.80">
        <route edges="-5 -3 -0"/>
    </vehicle>
    <vehicle id="687" depart="206.10">
        <route edges="-1 3 4"/>
    </vehicle>
    <vehicle id="689" depart="206.70">
        <route edges="-5 -3 -0"/>
    </vehicle>
    <vehicle id="691" depart="207.30">
        <route edges="-8 7"/>
    </vehicle>
    <vehicle id="692" depart="207.60">
        <route edges="-2 1"/>
    </vehicle>
    <vehicle id="693" depart="207.90">
        <route edges="0 3 6"/>
    </vehicle>
    <vehicle id="695" depart="208.50">
        <route edges="-6 -3 -0"/>
    </vehicle>
    <vehicle id="697" depart="209.10">
        <route edges="3 4"/>
    </vehicle>
    <vehicle id="699" depart="209.70">
        <route edges="-2 1"/>
    </vehicle>
    <vehicle id="702" depart="210.60">
        <route edges="-6 -3"/>
    </vehicle>
    <vehicle id="704" depart="211.20">
        <route edges="-1 3 4"/>
    </vehicle>
    <vehicle id="705" depart="211.50">
        <route edges="-3"/>
    </vehicle>
    <vehicle id="706" depart="211.80">
        <route edges="-6 5"/>
    </vehicle>
    <vehicle id="707" depart="212.10">
        <route edges="-3 2"/>
    </vehicle>
    <vehicle id="708" depart="212.40">
        <route edges="-8 -6 -3"/>
    </vehicle>
    <vehicle id="716" depart="214.80">
        <route edges="-9 -6 5"/>
    </vehicle>
    <vehicle id="717" depart="215.10">
        <route edges="0 3 6"/>
    </vehicle>
    <vehicle id="722" depart="216.60">
        <route edges="-8 7"/>
    </vehicle>
    <vehicle id="723" depart="216.90">
        <route edges="-1 3 6 7"/>
    </vehicle>
    <vehicle id="726" depart="217.80">
        <route edges="-1 3 6 9"/>
    </vehicle>
    <vehicle id="727" depart="218.10">
        <route edges="-7 9"/>
    </vehicle>
    <vehicle id="733" depart="219.90">
        <route edges="3 6"/>
    </vehicle>
    <vehicle id="738" depart="221.40">
        <route edges="-9 -6 -3 -0"/>
    </vehicle>
    <vehicle id="739" depart="221.70">
        <route edges="-8 7"/>
    </vehicle>
    <vehicle id="742" depart="222.60">
        <route edges="-4 5"/>
    </vehicle>
    <vehicle id="744" depart="223.20">
        <route edges="-5 -3 -0"/>
    </vehicle>
    <vehicle id="747" depart="224.10">
        <route edges="6 9"/>
    </vehicle>
    <vehicle id="753" depart="225.90">
        <route edges="-1 3 6 7"/>
    </vehicle>
    <vehicle id="754" depart="226.20">
        <route edges="-5 -3 2"/>
    </vehicle>
    <vehicle id="760" depart="228.00">
        <route edges="-3"/>
    </vehicle>
    <vehicle id="762" depart="228.60">
        <route edges="-5 4"/>
    </vehicle>
    <vehicle id="766" depart="229.80">
        <route edges="-6 -3"/>
    </vehicle>
    <vehicle id="767" depart="230.10">
        <route edges="3"/>
    </vehicle>
    <vehicle id="768" depart="230.40">
        <route edges="3"/>
    </vehicle>
    <vehicle id="771" depart="231.30">
        <route edges="-5 -3 -0"/>
    </vehicle>
    <vehicle id="772" depart="231.60">
        <route edges="-7 8"/>
    </vehicle>
    <vehicle id="773" depart="231.90">
        <route edges="3 6"/>
    </vehicle>
    <vehicle id="775" depart="232.50">
        <route edges="0 3 4"/>
    </vehicle>
    <vehicle id="778" depart="233.40">
        <route edges="-1 3 4"/>
    </vehicle>
    <vehicle id="781" depart="234.30">
        <route edges="-2 1"/>
    </vehicle>
    <vehicle id="782" depart="234.60">
        <route edges="6"/>
    </vehicle>
    <vehicle id="793" depart="237.90">
        <route edges="-4 6"/>
    </vehicle>
    <vehicle id="796" depart="238.80">
        <route edges="-4 5"/>
    </vehicle>
    <vehicle id="806" depart="241.80">
        <route edges="-8 7"/>
    </vehicle>
    <vehicle id="808" depart="242.40">
        <route edges="-6 5"/>
    </vehicle>
    <vehicle id="809" depart="242.70">
        <route edges="-4 6 9"/>
    </vehicle>
    <vehicle id="815" depart="244.50">
        <route edges="-4 6"/>
    </vehicle>
    <vehicle id="816" depart="244.80">
        <route edges="-9 8"/>
    </vehicle>
    <vehicle id="818" depart="245.40">
        <route edges="-5 4"/>
    </vehicle>
    <vehicle id="821" depart="246.30">
        <route edges="-2 1"/>
    </vehicle>
    <vehicle id="824" depart="247.20">
        <route edges="-2 1"/>
    </vehicle>
    <vehicle id="826" depart="247.80">
        <route edges="0 3"/>
    </vehicle>
    <vehicle id="831" depart="249.30">
        <route edges="-5 -3 -0"/>
    </vehicle>
    <vehicle id="834" depart="250.20">
        <route edges="-7 8"/>
    </vehicle>
    <vehicle id="836" depart="250.80">
        <route edges="-9 7"/>
    </vehicle>
    <vehicle id="837" depart="251.10">
        <route edges="-5 -3 2"/>
    </vehicle>
    <vehicle id="841" depart="252.30">
        <route edges="-4 6 9"/>
    </vehicle>
    <vehicle id="842" depart="252.60">
        <route edges="-9 -6 -3"/>
    </vehicle>
    <vehicle id="845" depart="253.50">
        <route edges="6 7"/>
    </vehicle>
    <vehicle id="848" depart="254.40">
        <route edges="-2 1"/>
    </vehicle>
    <vehicle id="851" depart="255.30">
        <route edges="-4 5"/>
    </vehicle>
    <vehicle id="856" depart="256.80">
        <route edges="-4 6 7"/>
    </vehicle>
    <vehicle id="859" depart="257.70">
        <route edges="0 3 6"/>
    </vehicle>
    <vehicle id="860" depart="258.00">
        <route edges="-9 -6 -3 -0"/>
    </vehicle>
    <vehicle id="862" depart="258.60">
        <route edges="0 3 6 7"/>
    </vehicle>
    <vehicle id="864" depart="259.20">
        <route edges="-8 -6"/>
    </vehicle>
    <vehicle id="865" depart="259.50">
        <route edges="-8 -6 5"/>
    </vehicle>
    <vehicle id="867" depart="260.10">
        <route edges="-9 -6 -3 -0"/>
    </vehicle>
    <vehicle id="873" depart="261.90">
        <route edges="-9 -6 -3 -0"/>
    </vehicle>
    <vehicle id="875" depart="262.50">
        <route edges="-4 5"/>
    </vehicle>
    <vehicle id="878" depart="263.40">
        <route edges="-5 -3 2"/>
    </vehicle>
    <vehicle id="879" depart="263.70">
        <route edges="0 3 6"/>
    </vehicle>
    <vehicle id="881" depart="264.30">
        <route edges="-8 -6"/>
    </vehicle>
    <vehicle id="887" depart="266.10">
        <route edges="6 7"/>
    </vehicle>
    <vehicle id="889" depart="266.70">
        <route edges="-9 -6 -3 2"/>
    </vehicle>
    <vehicle id="890" depart="267.00">
        <route edges="6 7"/>
    </vehicle>
    <vehicle id="891" depart="267.30">
        <route edges="6 7"/>
    </vehicle>
    <vehicle id="893" depart="267.90">
        <route edges="-9 -6 -3 2"/>
    </vehicle>
    <vehicle id="895" depart="268.50">
        <route edges="-6"/>
    </vehicle>
    <vehicle id="896" depart="268.80">
        <route edges="-7 9"/>
    </vehicle>
    <vehicle id="897" depart="269.10">
        <route edges="-9 -6 -3"/>
    </vehicle>
    <vehicle id="898" depart="269.40">
        <route edges="-8 -6 5"/>
    </vehicle>
    <vehicle id="901" depart="270.30">
        <route edges="-1 2"/>
    </vehicle>
    <vehicle id="902" depart="270.60">
        <route edges="-9 -6 -3"/>
    </vehicle>
    <vehicle id="904" depart="271.20">
        <route edges="-7 9"/>
    </vehicle>
    <vehicle id="906" depart="271.80">
        <route edges="3"/>
    </vehicle>
    <vehicle id="908" depart="272.40">