<?xml version="1.0" encoding="UTF-8"?>

<!-- generated on 2023-03-18 21:39:39.827837 by randomTrips.py UNKNOWN
<configuration>
    <end value="600"/>
    <net-file value="/Users/zixuan/Desktop/UCB/Capstone_AIForTraffic/1028-SUMOnetwork/SUMO_Network.net.xml"/>
    <period value="0.9"/>
    <route-file value="0318LTimeLFlow.rou.xml"/>
</configuration>
-->

<!-- generated on 2023-03-18 21:39:39 by Eclipse SUMO duarouter Version 1.16.0
<configuration xmlns:xsi="http://www.w3.org/2001/XMLSchema-instance" xsi:noNamespaceSchemaLocation="http://sumo.dlr.de/xsd/duarouterConfiguration.xsd">

    <input>
        <net-file value="/Users/zixuan/Desktop/UCB/Capstone_AIForTraffic/1028-SUMOnetwork/SUMO_Network.net.xml"/>
        <route-files value="trips.trips.xml"/>
    </input>

    <output>
        <output-file value="0318LTimeLFlow.rou.xml"/>
        <alternatives-output value="NUL"/>
    </output>

    <time>
        <begin value="0"/>
        <end value="600"/>
    </time>

    <report>
        <no-warnings value="true"/>
        <ignore-errors value="true"/>
        <no-step-log value="true"/>
    </report>

</configuration>
-->

<routes xmlns:xsi="http://www.w3.org/2001/XMLSchema-instance" xsi:noNamespaceSchemaLocation="http://sumo.dlr.de/xsd/routes_file.xsd">
    <vehicle id="0" depart="0.00">
        <route edges="-8 -6 -3 -0"/>
    </vehicle>
    <vehicle id="4" depart="3.60">
        <route edges="-6 -3 -0"/>
    </vehicle>
    <vehicle id="10" depart="9.00">
        <route edges="0 3 6"/>
    </vehicle>
    <vehicle id="11" depart="9.90">
        <route edges="-5 -3"/>
    </vehicle>
    <vehicle id="15" depart="13.50">
        <route edges="0 3 6"/>
    </vehicle>
    <vehicle id="16" depart="14.40">
        <route edges="-7 9"/>
    </vehicle>
    <vehicle id="17" depart="15.30">
        <route edges="-5 4"/>
    </vehicle>
    <vehicle id="19" depart="17.10">
        <route edges="3 4"/>
    </vehicle>
    <vehicle id="20" depart="18.00">
        <route edges="-9 -6 -3 -0"/>
    </vehicle>
    <vehicle id="23" depart="20.70">
        <route edges="-2 1"/>
    </vehicle>
    <vehicle id="24" depart="21.60">
        <route edges="-8 -6 -3 2"/>
    </vehicle>
    <vehicle id="26" depart="23.40">
        <route edges="-4 6 9"/>
    </vehicle>
    <vehicle id="27" depart="24.30">
        <route edges="-8 -6 5"/>
    </vehicle>
    <vehicle id="32" depart="28.80">
        <route edges="3 6 7"/>
    </vehicle>
    <vehicle id="33" depart="29.70">
        <route edges="-3 -0"/>
    </vehicle>
    <vehicle id="37" depart="33.30">
        <route edges="-8 -6 -3 2"/>
    </vehicle>
    <vehicle id="38" depart="34.20">
        <route edges="3"/>
    </vehicle>
    <vehicle id="44" depart="39.60">
        <route edges="-2 -0"/>
    </vehicle>
    <vehicle id="46" depart="41.40">
        <route edges="0 3"/>
    </vehicle>
    <vehicle id="47" depart="42.30">
        <route edges="-1 2"/>
    </vehicle>
    <vehicle id="50" depart="45.00">
        <route edges="-1 3 6"/>
    </vehicle>
    <vehicle id="52" depart="46.80">
        <route edges="-4 5"/>
    </vehicle>
    <vehicle id="58" depart="52.20">
        <route edges="-4 5"/>
    </vehicle>
    <vehicle id="59" depart="53.10">
        <route edges="-8 -6 -3"/>
    </vehicle>
    <vehicle id="60" depart="54.00">
        <route edges="0 3 4"/>
    </vehicle>
    <vehicle id="61" depart="54.90">
        <route edges="0 3 4"/>
    </vehicle>
    <vehicle id="63" depart="56.70">
        <route edges="-1 3 6 9"/>
    </vehicle>
    <vehicle id="64" depart="57.60">
        <route edges="3 6 7"/>
    </vehicle>
    <vehicle id="66" depart="59.40">
        <route edges="3 6 9"/>
    </vehicle>
    <vehicle id="68" depart="61.20">
        <route edges="-1 3 6 7"/>
    </vehicle>
    <vehicle id="72" depart="64.80">
        <route edges="-6"/>
    </vehicle>
    <vehicle id="84" depart="75.60">
        <route edges="-3"/>
    </vehicle>
    <vehicle id="92" depart="82.80">
        <route edges="-5 -3 2"/>
    </vehicle>
    <vehicle id="100" depart="90.00">
        <route edges="6 9"/>
    </vehicle>
    <vehicle id="102" depart="91.80">
        <route edges="-6"/>
    </vehicle>
    <vehicle id="103" depart="92.70">
        <route edges="-5 -3 -0"/>
    </vehicle>
    <vehicle id="105" depart="94.50">
        <route edges="-4 6 7"/>
    </vehicle>
    <vehicle id="107" depart="96.30">
        <route edges="6 9"/>
    </vehicle>
    <vehicle id="109" depart="98.10">
        <route edges="-2 1"/>
    </vehicle>
    <vehicle id="113" depart="101.70">
        <route edges="-7 8"/>
    </vehicle>
    <vehicle id="117" depart="105.30">
        <route edges="-3"/>
    </vehicle>
    <vehicle id="119" depart="107.10">
        <route edges="-8 -6 5"/>
    </vehicle>
    <vehicle id="120" depart="108.00">
        <route edges="-6 5"/>
    </vehicle>
    <vehicle id="121" depart="108.90">
        <route edges="-7 9"/>
    </vehicle>
    <vehicle id="123" depart="110.70">
        <route edges="-3 2"/>
    </vehicle>
    <vehicle id="125" depart="112.50">
        <route edges="-4 6 7"/>
    </vehicle>
    <vehicle id="126" depart="113.40">
        <route edges="-1 3"/>
    </vehicle>
    <vehicle id="127" depart="114.30">
        <route edges="6 9"/>
    </vehicle>
    <vehicle id="129" depart="116.10">
        <route edges="-4 6 9"/>
    </vehicle>
    <vehicle id="131" depart="117.90">
        <route edges="-5 -3"/>
    </vehicle>
    <vehicle id="132" depart="118.80">
        <route edges="3 6"/>
    </vehicle>
    <vehicle id="134" depart="120.60">
        <route edges="-8 -6 -3 -0"/>
    </vehicle>
    <vehicle id="135" depart="121.50">
        <route edges="0 1"/>
    </vehicle>
    <vehicle id="139" depart="125.10">
        <route edges="-4 5"/>
    </vehicle>
    <vehicle id="140" depart="126.00">
        <route edges="-9 -6"/>
    </vehicle>
    <vehicle id="145" depart="130.50">
        <route edges="-1 3 6 7"/>
    </vehicle>
    <vehicle id="148" depart="133.20">
        <route edges="-6 -3 -0"/>
    </vehicle>
    <vehicle id="150" depart="135.00">
        <route edges="3 4"/>
    </vehicle>
    <vehicle id="151" depart="135.90">
        <route edges="3 4"/>
    </vehicle>
    <vehicle id="156" depart="140.40">
        <route edges="-3"/>
    </vehicle>
    <vehicle id="160" depart="144.00">
        <route edges="3 6 9"/>
    </vehicle>
    <vehicle id="162" depart="145.80">
        <route edges="-1 3 6"/>
    </vehicle>
    <vehicle id="163" depart="146.70">
        <route edges="-4 6 9"/>
    </vehicle>
    <vehicle id="165" depart="148.50">
        <route edges="0 1"/>
    </vehicle>
    <vehicle id="174" depart="156.60">
        <route edges="-8 -6 -3 2"/>
    </vehicle>
    <vehicle id="182" depart="163.80">
        <route edges="-5 4"/>
    </vehicle>
    <vehicle id="183" depart="164.70">
        <route edges="-4 6"/>
    </vehicle>
    <vehicle id="184" depart="165.60">
        <route edges="-1 3 6 9"/>
    </vehicle>
    <vehicle id="187" depart="168.30">
        <route edges="-5 -3 -0"/>
    </vehicle>
    <vehicle id="194" depart="174.60">
        <route edges="6"/>
    </vehicle>
    <vehicle id="200" depart="180.00">
        <route edges="-6"/>
    </vehicle>
    <vehicle id="204" depart="183.60">
        <route edges="-8 -6 -3 2"/>
    </vehicle>
    <vehicle id="205" depart="184.50">
        <route edges="0 3 6 7"/>
    </vehicle>
    <vehicle id="206" depart="185.40">
        <route edges="-9 -6"/>
    </vehicle>
    <vehicle id="207" depart="186.30">
        <route edges="-3 -0"/>
    </vehicle>
    <vehicle id="212" depart="190.80">
        <route edges="-6"/>
    </vehicle>
    <vehicle id="213" depart="191.70">
        <route edges="-8 -6 -3 -0"/>
    </vehicle>
    <vehicle id="214" depart="192.60">
        <route edges="0 3 6 7"/>
    </vehicle>
    <vehicle id="224" depart="201.60">
        <route edges="0 3 4"/>
    </vehicle>
    <vehicle id="225" depart="202.50">
        <route edges="3 6"/>
    </vehicle>
    <vehicle id="228" depart="205.20">
        <route edges="0 3 4"/>
    </vehicle>
    <vehicle id="234" depart="210.60">
        <route edges="-9 -6 -3 -0"/>
    </vehicle>
    <vehicle id="235" depart="211.50">
        <route edges="-5 4"/>
    </vehicle>
    <vehicle id="239" depart="215.10">
        <route edges="3 6 7"/>
    </vehicle>
    <vehicle id="240" depart="216.00">
        <route edges="-5 -3 -0"/>
    </vehicle>
    <vehicle id="242" depart="217.80">
        <route edges="3 6 9"/>
    </vehicle>
    <vehicle id="246" depart="221.40">
        <route edges="-6 -3 -0"/>
    </vehicle>
    <vehicle id="248" depart="223.20">
        <route edges="-5 -3"/>
    </vehicle>
    <vehicle id="249" depart="224.10">
        <route edges="-6 -3"/>
    </vehicle>
    <vehicle id="250" depart="225.00">
        <route edges="-8 -6 -3 -0"/>
    </vehicle>
    <vehicle id="251" depart="225.90">
        <route edges="-5 4"/>
    </vehicle>
    <vehicle id="254" depart="228.60">
        <route edges="-1 2"/>
    </vehicle>
    <vehicle id="257" depart="231.30">
        <route edges="0 3 6 7"/>
    </vehicle>
    <vehicle id="259" depart="233.10">
        <route edges="-1 3 4"/>
    </vehicle>
    <vehicle id="261" depart="234.90">
        <route edges="-8 7"/>
    </vehicle>
    <vehicle id="262" depart="235.80">
        <route edges="-8 7"/>
    </vehicle>
    <vehicle id="269" depart="242.10">
        <route edges="-9 -6 -3"/>
    </vehicle>
    <vehicle id="270" depart="243.00">
        <route edges="0 3 6 9"/>
    </vehicle>
    <vehicle id="271" depart="243.90">
        <route edges="-2 -0"/>
    </vehicle>
    <vehicle id="272" depart="244.80">
        <route edges="-4 6"/>
    </vehicle>
    <vehicle id="274" depart="246.60">
        <route edges="-9 -6 -3 -0"/>
    </vehicle>
    <vehicle id="275" depart="247.50">
        <route edges="-9 -6 5"/>
    </vehicle>
    <vehicle id="280" depart="252.00">
        <route edges="-6 -3 2"/>
    </vehicle>
    <vehicle id="282" depart="253.80">
        <route edges="3 6 7"/>
    </vehicle>
    <vehicle id="284" depart="255.60">
        <route edges="-8 7"/>
    </vehicle>
    <vehicle id="287" depart="258.30">
        <route edges="-4 6 7"/>
    </vehicle>
    <vehicle id="293" depart="263.70">
        <route edges="-6 5"/>
    </vehicle>
    <vehicle id="294" depart="264.60">
        <route edges="-5 -3 -0"/>
    </vehicle>
    <vehicle id="299" depart="269.10">
        <route edges="-1 3 6 9"/>
    </vehicle>
    <vehicle id="302" depart="271.80">
        <route edges="-9 -6 5"/>
    </vehicle>
    <vehicle id="311" depart="279.90">
        <route edges="-3"/>
    </vehicle>
    <vehicle id="318" depart="286.20">
        <route edges="-3 -0"/>
    </vehicle>
    <vehicle id="321" depart="288.90">
        <route edges="-9 -6 -3"/>
    </vehicle>
    <vehicle id="322" depart="289.80">
        <route edges="3"/>
    </vehicle>
    <vehicle id="323" depart="290.70">
        <route edges="3 4"/>
    </vehicle>
    <vehicle id="325" depart="292.50">
        <route edges="-3 -0"/>
    </vehicle>
    <vehicle id="337" depart="303.30">
        <route edges="-8 -6 5"/>
    </vehicle>
    <vehicle id="340" depart="306.00">
        <route edges="-8 -6 -3"/>
    </vehicle>
    <vehicle id="341" depart="306.90">
        <route edges="-3 -0"/>
    </vehicle>
    <vehicle id="342" depart="307.80">
        <route edges="-1 3"/>
    </vehicle>
    <vehicle id="352" depart="316.80">
        <route edges="-2 1"/>
    </vehicle>
    <vehicle id="357" depart="321.30">
        <route edges="-6 -3 -0"/>
    </vehicle>
    <vehicle id="358" depart="322.20">
        <route edges="-1 3"/>
    </vehicle>
    <vehicle id="361" depart="324.90">
        <route edges="3 4"/>
    </vehicle>
    <vehicle id="362" depart="325.80">
        <route edges="6 9"/>
    </vehicle>
    <vehicle id="364" depart="327.60">
        <route edges="-1 3 6 7"/>
    </vehicle>
    <vehicle id="365" depart="328.50">
        <route edges="-6 5"/>
    </vehicle>
    <vehicle id="367" depart="330.30">
        <route edges="-8 -6 5"/>
    </vehicle>
    <vehicle id="368" depart="331.20">
        <route edges="-6 -3"/>
    </vehicle>
    <vehicle id="370" depart="333.00">
        <route edges="-9 8"/>
    </vehicle>
    <vehicle id="371" depart="333.90">
        <route edges="-4 6"/>
    </vehicle>
    <vehicle id="372" depart="334.80">
        <route edges="-4 6 9"/>
    </vehicle>
    <vehicle id="373" depart="335.70">
        <route edges="0 3 4"/>
    </vehicle>
    <vehicle id="375" depart="337.50">
        <route edges="-4 6 9"/>
    </vehicle>
    <vehicle id="376" depart="338.40">
        <route edges="-5 4"/>
    </vehicle>
    <vehicle id="379" depart="341.10">
        <route edges="-3 2"/>
    </vehicle>
    <vehicle id="382" depart="343.80">
        <route edges="-7 9"/>
    </vehicle>
    <vehicle id="385" depart="346.50">
        <route edges="-8 -6"/>
    </vehicle>
    <vehicle id="389" depart="350.10">
        <route edges="-6 -3"/>
    </vehicle>
    <vehicle id="390" depart="351.00">
        <route edges="0 3"/>
    </vehicle>
    <vehicle id="397" depart="357.30">
        <route edges="-4 6 7"/>
    </vehicle>
    <vehicle id="402" depart="361.80">
        <route edges="-6 -3"/>
    </vehicle>
    <vehicle id="411" depart="369.90">
        <route edges="-8 7"/>
    </vehicle>
    <vehicle id="413" depart="371.70">
        <route edges="-1 3 4"/>
    </vehicle>
    <vehicle id="415" depart="373.50">
        <route edges="3"/>
    </vehicle>
    <vehicle id="417" depart="375.30">
        <route edges="-9 -6 -3 2"/>
    </vehicle>
    <vehicle id="418" depart="376.20">
        <route edges="-8 -6 -3"/>
    </vehicle>
    <vehicle id="427" depart="384.30">
        <route edges="6 9"/>
    </vehicle>
    <vehicle id="430" depart="387.00">
        <route edges="3"/>
    </vehicle>
    <vehicle id="431" depart="387.90">
        <route edges="-9 8"/>
    </vehicle>
    <vehicle id="432" depart="388.80">
        <route edges="-1 3 6 7"/>
    </vehicle>
    <vehicle id="436" depart="392.40">
        <route edges="-3 -0"/>
    </vehicle>
    <vehicle id="441" depart="396.90">
        <route edges="-1 3 6 7"/>
    </vehicle>
    <vehicle id="442" depart="397.80">
        <route edges="3 6"/>
    </vehicle>
    <vehicle id="447" depart="402.30">
        <route edges="-3 2"/>
    </vehicle>
    <vehicle id="448" depart="403.20">
        <route edges="-6"/>
    </vehicle>
    <vehicle id="456" depart="410.40">
        <route edges="-4 6 7"/>
    </vehicle>
    <vehicle id="457" depart="411.30">
        <route edges="-8 -6 -3 2"/>
    </vehicle>
    <vehicle id="458" depart="412.20">
        <route edges="-8 -6 5"/>
    </vehicle>
    <vehicle id="464" depart="417.60">
        <route edges="-9 -6 -3"/>
    </vehicle>
    <vehicle id="465" depart="418.50">
        <route edges="-4 6"/>
    </vehicle>
    <vehicle id="466" depart="419.40">
        <route edges="-3"/>
    </vehicle>
    <vehicle id="467" depart="420.30">
        <route edges="-7 9"/>
    </vehicle>
    <vehicle id="468" depart="421.20">
        <route edges="-7 8"/>
    </vehicle>
    <vehicle id="469" depart="422.10">
        <route edges="0 1"/>
    </vehicle>
    <vehicle id="470" depart="423.00">
        <route edges="0 3"/>
    </vehicle>
    <vehicle id="471" depart="423.90">
        <route edges="0 3 6"/>
    </vehicle>
    <vehicle id="472" depart="424.80">
        <route edges="-5 -3"/>
    </vehicle>
    <vehicle id="476" depart="428.40">
        <route edges="6 7"/>
    </vehicle>
    <vehicle id="478" depart="430.20">
        <route edges="-1 3 4"/>
    </vehicle>
    <vehicle id="480" depart="432.00">
        <route edges="-9 -6 5"/>
    </vehicle>
    <vehicle id="481" depart="432.90">
        <route edges="0 3 6 9"/>
    </vehicle>
    <vehicle id="484" depart="435.60">
        <route edges="-7 8"/>
    </vehicle>
    <vehicle id="485" depart="436.50">
        <route edges="-3 -0"/>
    </vehicle>
    <vehicle id="494" depart="444.60">
        <route edges="-9 -6 -3"/>
    </vehicle>
    <vehicle id="495" depart="445.50">
        <route edges="-5 -3"/>
    </vehicle>
    <vehicle id="496" depart="446.40">
        <route edges="-6 -3 2"/>
    </vehicle>
    <vehicle id="501" depart="450.90">
        <route edges="-7 9"/>
    </vehicle>
    <vehicle id="502" depart="451.80">
        <route edges="-5 -3 2"/>
    </vehicle>
    <vehicle id="503" depart="452.70">
        <route edges="-3"/>
    </vehicle>
    <vehicle id="504" depart="453.60">
        <route edges="3"/>
    </vehicle>
    <vehicle id="505" depart="454.50">
        <route edges="-8 -6 5"/>
    </vehicle>
    <vehicle id="506" depart="455.40">
        <route edges="-8 -6 -3 -0"/>
    </vehicle>
    <vehicle id="509" depart="458.10">
        <route edges="-1 3 6 7"/>
    </vehicle>
    <vehicle id="516" depart="464.40">
        <route edges="-8 -6 -3 -0"/>
    </vehicle>
    <vehicle id="517" depart="465.30">
        <route edges="-1 3 6 7"/>
    </vehicle>
    <vehicle id="519" depart="467.10">
        <route edges="-3 -0"/>
    </vehicle>
    <vehicle id="522" depart="469.80">
        <route edges="0 3 4"/>
    </vehicle>
    <vehicle id="528" depart="475.20">
        <route edges="-6 -3 2"/>
    </vehicle>
    <vehicle id="534" depart="480.60">
        <route edges="-4 6 9"/>
    </vehicle>
    <vehicle id="536" depart="482.40">
        <route edges="-8 -6 -3"/>
    </vehicle>
    <vehicle id="537" depart="483.30">
        <route edges="-9 8"/>
    </vehicle>
    <vehicle id="538" depart="484.20">
        <route edges="-8 7"/>
    </vehicle>
    <vehicle id="539" depart="485.10">
        <route edges="-9 -6"/>
    </vehicle>
    <vehicle id="540" depart="486.00">
        <route edges="-6"/>
    </vehicle>
    <vehicle id="542" depart="487.80">
        <route edges="-5 -3"/>
    </vehicle>
    <vehicle id="543" depart="488.70">
        <route edges="-6 5"/>
    </vehicle>
    <vehicle id="544" depart="489.60">
        <route edges="-5 -3"/>
    </vehicle>
    <vehicle id="548" depart="493.20">
        <route edges="0 3 4"/>
    </vehicle>
    <vehicle id="554" depart="498.60">
        <route edges="-8 -6 -3 2"/>
    </vehicle>
    <vehicle id="556" depart="500.40">
        <route edges="-8 -6"/>
    </vehicle>
    <vehicle id="560" depart="504.00">
        <route edges="3 6 9"/>
    </vehicle>
    <vehicle id="562" depart="505.80">
        <route edges="-8 -6 -3 -0"/>
    </vehicle>
    <vehicle id="563" depart="506.70">
        <route edges="6 7"/>
    </vehicle>
    <vehicle id="566" depart="509.40">
        <route edges="-5 -3 -0"/>
    </vehicle>
    <vehicle id="567" depart="510.30">
        <route edges="3 4"/>
    </vehicle>
    <vehicle id="568" depart="511.20">
        <route edges="-5 -3"/>
    </vehicle>
    <vehicle id="569" depart="512.10">
        <route edges="-8 -6 -3 -0"/>
    </vehicle>
    <vehicle id="570" depart="513.00">
        <route edges="-9 -6"/>
    </vehicle>
    <vehicle id="571" depart="513.90">
        <route edges="-6 -3 2"/>
    </vehicle>
    <vehicle id="573" depart="515.70">
        <route edges="0 3 4"/>
    </vehicle>
    <vehicle id="574" depart="516.60">
        <route edges="-2 -0"/>
    </vehicle>
    <vehicle id="582" depart="523.80">
        <route edges="-9 -6 -3 -0"/>
    </vehicle>
    <vehicle id="585" depart="526.50">
        <route edges="-3"/>
    </vehicle>
    <vehicle id="587" depart="528.30">
        <route edges="-1 3 6"/>
    </vehicle>
    <vehicle id="588" depart="529.20">
        <route edges="-3 2"/>
    </vehicle>
    <vehicle id="590" depart="531.00">
        <route edges="3 6 7"/>
    </vehicle>
    <vehicle id="596" depart="536.40">
        <route edges="-2 -0"/>
    </vehicle>
    <vehicle id="597" depart="537.30">
        <route edges="-4 6 7"/>
    </vehicle>
    <vehicle id="598" depart="538.20">
        <route edges="-8 7"/>
    </vehicle>
    <vehicle id="610" depart="549.00">
        <route edges="-8 7"/>
    </vehicle>
    <vehicle id="611" depart="549.90">
        <route edges="-8 -6"/>
    </vehicle>
    <vehicle id="612" depart="550.80">
        <route edges="0 3"/>
    </vehicle>
    <vehicle id="613" depart="551.70">
        <route edges="0 3 6 7"/>
    </vehicle>
    <vehicle id="617" depart="555.30">
        <route edges="-8 -6 -3"/>
    </vehicle>
    <vehicle id="618" depart="556.20">
        <route edges="-1 3"/>
    </vehicle>
    <vehicle id="620" depart="558.00">
        <route edges="-1 3 4"/>
    </vehicle>
    <vehicle id="622" depart="559.80">
        <route edges="-1 3 6 7"/>
    </vehicle>
    <vehicle id="627" depart="564.30">
        <route edges="3"/>
    </vehicle>
    <vehicle id="630" depart="567.00">
        <route edges="-2 -0"/>
    </vehicle>
    <vehicle id="642" depart="577.80">
        <route edges="-9 -6 5"/>
    </vehicle>
    <vehicle id="644" depart="579.60">
        <route edges="-5 4"/>
    </vehicle>
    <vehicle id="646" depart="581.40">
        <route edges="6"/>
    </vehicle>
    <vehicle id="650" depart="585.00">
        <route edges="0 3 6"/>
    </vehicle>
    <vehicle id="651" depart="585.90">
        <route edges="0 3 6"/>
    </vehicle>
    <vehicle id="654" depart="588.60">
        <route edges="-5 -3 2"/>
    </vehicle>
    <vehicle id="657" depart="591.30">
        <route edges="-3"/>
    </vehicle>
    <vehicle id="661" depart="594.90">
        <route edges="-1 2"/>
    </vehicle>
    <vehicle id="663" depart="596.70">
        <route edges="-5 -3"/>
    </vehicle>
    <vehicle id="664" depart="597.60">
        <route edges="0 3 6 7"/>
    </vehicle>
    <vehicle id="666" depart="599.40">
        <route edges="-6 -3 2"/>
    </vehicle>
</routes>
