<?xml version="1.0" encoding="UTF-8"?>

<!-- generated on 2023-01-24 22:29:50.847846 by randomTrips.py UNKNOWN
<configuration>
    <end value="3600"/>
    <net-file value="/Users/zixuan/Desktop/UCB/Capstone_AIForTraffic/1028-SUMOnetwork/SUMO_Network.net.xml"/>
    <route-file value="0123testing2.rou.xml"/>
</configuration>
-->

<!-- generated on 2023-01-24 22:29:50 by Eclipse SUMO duarouter Version 1.14.1
<configuration xmlns:xsi="http://www.w3.org/2001/XMLSchema-instance" xsi:noNamespaceSchemaLocation="http://sumo.dlr.de/xsd/duarouterConfiguration.xsd">

    <input>
        <net-file value="/Users/zixuan/Desktop/UCB/Capstone_AIForTraffic/1028-SUMOnetwork/SUMO_Network.net.xml"/>
        <route-files value="trips.trips.xml"/>
    </input>

    <output>
        <output-file value="0123testing2.rou.xml"/>
        <alternatives-output value="NUL"/>
    </output>

    <time>
        <begin value="0"/>
        <end value="3600"/>
    </time>

    <report>
        <no-warnings value="true"/>
        <ignore-errors value="true"/>
        <no-step-log value="true"/>
    </report>

</configuration>
-->

<routes xmlns:xsi="http://www.w3.org/2001/XMLSchema-instance" xsi:noNamespaceSchemaLocation="http://sumo.dlr.de/xsd/routes_file.xsd">
    <vehicle id="0" depart="0.00">
        <route edges="-8 -6 -3 -0"/>
    </vehicle>
    <vehicle id="4" depart="4.00">
        <route edges="-6 -3 -0"/>
    </vehicle>
    <vehicle id="10" depart="10.00">
        <route edges="0 3 6"/>
    </vehicle>
    <vehicle id="11" depart="11.00">
        <route edges="-5 -3"/>
    </vehicle>
    <vehicle id="15" depart="15.00">
        <route edges="0 3 6"/>
    </vehicle>
    <vehicle id="16" depart="16.00">
        <route edges="-7 9"/>
    </vehicle>
    <vehicle id="17" depart="17.00">
        <route edges="-5 4"/>
    </vehicle>
    <vehicle id="19" depart="19.00">
        <route edges="3 4"/>
    </vehicle>
    <vehicle id="20" depart="20.00">
        <route edges="-9 -6 -3 -0"/>
    </vehicle>
    <vehicle id="23" depart="23.00">
        <route edges="-2 1"/>
    </vehicle>
    <vehicle id="24" depart="24.00">
        <route edges="-8 -6 -3 2"/>
    </vehicle>
    <vehicle id="26" depart="26.00">
        <route edges="-4 6 9"/>
    </vehicle>
    <vehicle id="27" depart="27.00">
        <route edges="-8 -6 5"/>
    </vehicle>
    <vehicle id="32" depart="32.00">
        <route edges="3 6 7"/>
    </vehicle>
    <vehicle id="33" depart="33.00">
        <route edges="-3 -0"/>
    </vehicle>
    <vehicle id="37" depart="37.00">
        <route edges="-8 -6 -3 2"/>
    </vehicle>
    <vehicle id="38" depart="38.00">
        <route edges="3"/>
    </vehicle>
    <vehicle id="44" depart="44.00">
        <route edges="-2 -0"/>
    </vehicle>
    <vehicle id="46" depart="46.00">
        <route edges="0 3"/>
    </vehicle>
    <vehicle id="47" depart="47.00">
        <route edges="-1 2"/>
    </vehicle>
    <vehicle id="50" depart="50.00">
        <route edges="-1 3 6"/>
    </vehicle>
    <vehicle id="52" depart="52.00">
        <route edges="-4 5"/>
    </vehicle>
    <vehicle id="58" depart="58.00">
        <route edges="-4 5"/>
    </vehicle>
    <vehicle id="59" depart="59.00">
        <route edges="-8 -6 -3"/>
    </vehicle>
    <vehicle id="60" depart="60.00">
        <route edges="0 3 4"/>
    </vehicle>
    <vehicle id="61" depart="61.00">
        <route edges="0 3 4"/>
    </vehicle>
    <vehicle id="63" depart="63.00">
        <route edges="-1 3 6 9"/>
    </vehicle>
    <vehicle id="64" depart="64.00">
        <route edges="3 6 7"/>
    </vehicle>
    <vehicle id="66" depart="66.00">
        <route edges="3 6 9"/>
    </vehicle>
    <vehicle id="68" depart="68.00">
        <route edges="-1 3 6 7"/>
    </vehicle>
    <vehicle id="72" depart="72.00">
        <route edges="-6"/>
    </vehicle>
    <vehicle id="84" depart="84.00">
        <route edges="-3"/>
    </vehicle>
    <vehicle id="92" depart="92.00">
        <route edges="-5 -3 2"/>
    </vehicle>
    <vehicle id="100" depart="100.00">
        <route edges="6 9"/>
    </vehicle>
    <vehicle id="102" depart="102.00">
        <route edges="-6"/>
    </vehicle>
    <vehicle id="103" depart="103.00">
        <route edges="-5 -3 -0"/>
    </vehicle>
    <vehicle id="105" depart="105.00">
        <route edges="-4 6 7"/>
    </vehicle>
    <vehicle id="107" depart="107.00">
        <route edges="6 9"/>
    </vehicle>
    <vehicle id="109" depart="109.00">
        <route edges="-2 1"/>
    </vehicle>
    <vehicle id="113" depart="113.00">
        <route edges="-7 8"/>
    </vehicle>
    <vehicle id="117" depart="117.00">
        <route edges="-3"/>
    </vehicle>
    <vehicle id="119" depart="119.00">
        <route edges="-8 -6 5"/>
    </vehicle>
    <vehicle id="120" depart="120.00">
        <route edges="-6 5"/>
    </vehicle>
    <vehicle id="121" depart="121.00">
        <route edges="-7 9"/>
    </vehicle>
    <vehicle id="123" depart="123.00">
        <route edges="-3 2"/>
    </vehicle>
    <vehicle id="125" depart="125.00">
        <route edges="-4 6 7"/>
    </vehicle>
    <vehicle id="126" depart="126.00">
        <route edges="-1 3"/>
    </vehicle>
    <vehicle id="127" depart="127.00">
        <route edges="6 9"/>
    </vehicle>
    <vehicle id="129" depart="129.00">
        <route edges="-4 6 9"/>
    </vehicle>
    <vehicle id="131" depart="131.00">
        <route edges="-5 -3"/>
    </vehicle>
    <vehicle id="132" depart="132.00">
        <route edges="3 6"/>
    </vehicle>
    <vehicle id="134" depart="134.00">
        <route edges="-8 -6 -3 -0"/>
    </vehicle>
    <vehicle id="135" depart="135.00">
        <route edges="0 1"/>
    </vehicle>
    <vehicle id="139" depart="139.00">
        <route edges="-4 5"/>
    </vehicle>
    <vehicle id="140" depart="140.00">
        <route edges="-9 -6"/>
    </vehicle>
    <vehicle id="145" depart="145.00">
        <route edges="-1 3 6 7"/>
    </vehicle>
    <vehicle id="148" depart="148.00">
        <route edges="-6 -3 -0"/>
    </vehicle>
    <vehicle id="150" depart="150.00">
        <route edges="3 4"/>
    </vehicle>
    <vehicle id="151" depart="151.00">
        <route edges="3 4"/>
    </vehicle>
    <vehicle id="156" depart="156.00">
        <route edges="-3"/>
    </vehicle>
    <vehicle id="160" depart="160.00">
        <route edges="3 6 9"/>
    </vehicle>
    <vehicle id="162" depart="162.00">
        <route edges="-1 3 6"/>
    </vehicle>
    <vehicle id="163" depart="163.00">
        <route edges="-4 6 9"/>
    </vehicle>
    <vehicle id="165" depart="165.00">
        <route edges="0 1"/>
    </vehicle>
    <vehicle id="174" depart="174.00">
        <route edges="-8 -6 -3 2"/>
    </vehicle>
    <vehicle id="182" depart="182.00">
        <route edges="-5 4"/>
    </vehicle>
    <vehicle id="183" depart="183.00">
        <route edges="-4 6"/>
    </vehicle>
    <vehicle id="184" depart="184.00">
        <route edges="-1 3 6 9"/>
    </vehicle>
    <vehicle id="187" depart="187.00">
        <route edges="-5 -3 -0"/>
    </vehicle>
    <vehicle id="194" depart="194.00">
        <route edges="6"/>
    </vehicle>
    <vehicle id="200" depart="200.00">
        <route edges="-6"/>
    </vehicle>
    <vehicle id="204" depart="204.00">
        <route edges="-8 -6 -3 2"/>
    </vehicle>
    <vehicle id="205" depart="205.00">
        <route edges="0 3 6 7"/>
    </vehicle>
    <vehicle id="206" depart="206.00">
        <route edges="-9 -6"/>
    </vehicle>
    <vehicle id="207" depart="207.00">
        <route edges="-3 -0"/>
    </vehicle>
    <vehicle id="212" depart="212.00">
        <route edges="-6"/>
    </vehicle>
    <vehicle id="213" depart="213.00">
        <route edges="-8 -6 -3 -0"/>
    </vehicle>
    <vehicle id="214" depart="214.00">
        <route edges="0 3 6 7"/>
    </vehicle>
    <vehicle id="224" depart="224.00">
        <route edges="0 3 4"/>
    </vehicle>
    <vehicle id="225" depart="225.00">
        <route edges="3 6"/>
    </vehicle>
    <vehicle id="228" depart="228.00">
        <route edges="0 3 4"/>
    </vehicle>
    <vehicle id="234" depart="234.00">
        <route edges="-9 -6 -3 -0"/>
    </vehicle>
    <vehicle id="235" depart="235.00">
        <route edges="-5 4"/>
    </vehicle>
    <vehicle id="239" depart="239.00">
        <route edges="3 6 7"/>
    </vehicle>
    <vehicle id="240" depart="240.00">
        <route edges="-5 -3 -0"/>
    </vehicle>
    <vehicle id="242" depart="242.00">
        <route edges="3 6 9"/>
    </vehicle>
    <vehicle id="246" depart="246.00">
        <route edges="-6 -3 -0"/>
    </vehicle>
    <vehicle id="248" depart="248.00">
        <route edges="-5 -3"/>
    </vehicle>
    <vehicle id="249" depart="249.00">
        <route edges="-6 -3"/>
    </vehicle>
    <vehicle id="250" depart="250.00">
        <route edges="-8 -6 -3 -0"/>
    </vehicle>
    <vehicle id="251" depart="251.00">
        <route edges="-5 4"/>
    </vehicle>
    <vehicle id="254" depart="254.00">
        <route edges="-1 2"/>
    </vehicle>
    <vehicle id="257" depart="257.00">
        <route edges="0 3 6 7"/>
    </vehicle>
    <vehicle id="259" depart="259.00">
        <route edges="-1 3 4"/>
    </vehicle>
    <vehicle id="261" depart="261.00">
        <route edges="-8 7"/>
    </vehicle>
    <vehicle id="262" depart="262.00">
        <route edges="-8 7"/>
    </vehicle>
    <vehicle id="269" depart="269.00">
        <route edges="-9 -6 -3"/>
    </vehicle>
    <vehicle id="270" depart="270.00">
        <route edges="0 3 6 9"/>
    </vehicle>
    <vehicle id="271" depart="271.00">
        <route edges="-2 -0"/>
    </vehicle>
    <vehicle id="272" depart="272.00">
        <route edges="-4 6"/>
    </vehicle>
    <vehicle id="274" depart="274.00">
        <route edges="-9 -6 -3 -0"/>
    </vehicle>
    <vehicle id="275" depart="275.00">
        <route edges="-9 -6 5"/>
    </vehicle>
    <vehicle id="280" depart="280.00">
        <route edges="-6 -3 2"/>
    </vehicle>
    <vehicle id="282" depart="282.00">
        <route edges="3 6 7"/>
    </vehicle>
    <vehicle id="284" depart="284.00">
        <route edges="-8 7"/>
    </vehicle>
    <vehicle id="287" depart="287.00">
        <route edges="-4 6 7"/>
    </vehicle>
    <vehicle id="293" depart="293.00">
        <route edges="-6 5"/>
    </vehicle>
    <vehicle id="294" depart="294.00">
        <route edges="-5 -3 -0"/>
    </vehicle>
    <vehicle id="299" depart="299.00">
        <route edges="-1 3 6 9"/>
    </vehicle>
    <vehicle id="302" depart="302.00">
        <route edges="-9 -6 5"/>
    </vehicle>
    <vehicle id="311" depart="311.00">
        <route edges="-3"/>
    </vehicle>
    <vehicle id="318" depart="318.00">
        <route edges="-3 -0"/>
    </vehicle>
    <vehicle id="321" depart="321.00">
        <route edges="-9 -6 -3"/>
    </vehicle>
    <vehicle id="322" depart="322.00">
        <route edges="3"/>
    </vehicle>
    <vehicle id="323" depart="323.00">
        <route edges="3 4"/>
    </vehicle>
    <vehicle id="325" depart="325.00">
        <route edges="-3 -0"/>
    </vehicle>
    <vehicle id="337" depart="337.00">
        <route edges="-8 -6 5"/>
    </vehicle>
    <vehicle id="340" depart="340.00">
        <route edges="-8 -6 -3"/>
    </vehicle>
    <vehicle id="341" depart="341.00">
        <route edges="-3 -0"/>
    </vehicle>
    <vehicle id="342" depart="342.00">
        <route edges="-1 3"/>
    </vehicle>
    <vehicle id="352" depart="352.00">
        <route edges="-2 1"/>
    </vehicle>
    <vehicle id="357" depart="357.00">
        <route edges="-6 -3 -0"/>
    </vehicle>
    <vehicle id="358" depart="358.00">
        <route edges="-1 3"/>
    </vehicle>
    <vehicle id="361" depart="361.00">
        <route edges="3 4"/>
    </vehicle>
    <vehicle id="362" depart="362.00">
        <route edges="6 9"/>
    </vehicle>
    <vehicle id="364" depart="364.00">
        <route edges="-1 3 6 7"/>
    </vehicle>
    <vehicle id="365" depart="365.00">
        <route edges="-6 5"/>
    </vehicle>
    <vehicle id="367" depart="367.00">
        <route edges="-8 -6 5"/>
    </vehicle>
    <vehicle id="368" depart="368.00">
        <route edges="-6 -3"/>
    </vehicle>
    <vehicle id="370" depart="370.00">
        <route edges="-9 8"/>
    </vehicle>
    <vehicle id="371" depart="371.00">
        <route edges="-4 6"/>
    </vehicle>
    <vehicle id="372" depart="372.00">
        <route edges="-4 6 9"/>
    </vehicle>
    <vehicle id="373" depart="373.00">
        <route edges="0 3 4"/>
    </vehicle>
    <vehicle id="375" depart="375.00">
        <route edges="-4 6 9"/>
    </vehicle>
    <vehicle id="376" depart="376.00">
        <route edges="-5 4"/>
    </vehicle>
    <vehicle id="379" depart="379.00">
        <route edges="-3 2"/>
    </vehicle>
    <vehicle id="382" depart="382.00">
        <route edges="-7 9"/>
    </vehicle>
    <vehicle id="385" depart="385.00">
        <route edges="-8 -6"/>
    </vehicle>
    <vehicle id="389" depart="389.00">
        <route edges="-6 -3"/>
    </vehicle>
    <vehicle id="390" depart="390.00">
        <route edges="0 3"/>
    </vehicle>
    <vehicle id="397" depart="397.00">
        <route edges="-4 6 7"/>
    </vehicle>
    <vehicle id="402" depart="402.00">
        <route edges="-6 -3"/>
    </vehicle>
    <vehicle id="411" depart="411.00">
        <route edges="-8 7"/>
    </vehicle>
    <vehicle id="413" depart="413.00">
        <route edges="-1 3 4"/>
    </vehicle>
    <vehicle id="415" depart="415.00">
        <route edges="3"/>
    </vehicle>
    <vehicle id="417" depart="417.00">
        <route edges="-9 -6 -3 2"/>
    </vehicle>
    <vehicle id="418" depart="418.00">
        <route edges="-8 -6 -3"/>
    </vehicle>
    <vehicle id="427" depart="427.00">
        <route edges="6 9"/>
    </vehicle>
    <vehicle id="430" depart="430.00">
        <route edges="3"/>
    </vehicle>
    <vehicle id="431" depart="431.00">
        <route edges="-9 8"/>
    </vehicle>
    <vehicle id="432" depart="432.00">
        <route edges="-1 3 6 7"/>
    </vehicle>
    <vehicle id="436" depart="436.00">
        <route edges="-3 -0"/>
    </vehicle>
    <vehicle id="441" depart="441.00">
        <route edges="-1 3 6 7"/>
    </vehicle>
    <vehicle id="442" depart="442.00">
        <route edges="3 6"/>
    </vehicle>
    <vehicle id="447" depart="447.00">
        <route edges="-3 2"/>
    </vehicle>
    <vehicle id="448" depart="448.00">
        <route edges="-6"/>
    </vehicle>
    <vehicle id="456" depart="456.00">
        <route edges="-4 6 7"/>
    </vehicle>
    <vehicle id="457" depart="457.00">
        <route edges="-8 -6 -3 2"/>
    </vehicle>
    <vehicle id="458" depart="458.00">
        <route edges="-8 -6 5"/>
    </vehicle>
    <vehicle id="464" depart="464.00">
        <route edges="-9 -6 -3"/>
    </vehicle>
    <vehicle id="465" depart="465.00">
        <route edges="-4 6"/>
    </vehicle>
    <vehicle id="466" depart="466.00">
        <route edges="-3"/>
    </vehicle>
    <vehicle id="467" depart="467.00">
        <route edges="-7 9"/>
    </vehicle>
    <vehicle id="468" depart="468.00">
        <route edges="-7 8"/>
    </vehicle>
    <vehicle id="469" depart="469.00">
        <route edges="0 1"/>
    </vehicle>
    <vehicle id="470" depart="470.00">
        <route edges="0 3"/>
    </vehicle>
    <vehicle id="471" depart="471.00">
        <route edges="0 3 6"/>
    </vehicle>
    <vehicle id="472" depart="472.00">
        <route edges="-5 -3"/>
    </vehicle>
    <vehicle id="476" depart="476.00">
        <route edges="6 7"/>
    </vehicle>
    <vehicle id="478" depart="478.00">
        <route edges="-1 3 4"/>
    </vehicle>
    <vehicle id="480" depart="480.00">
        <route edges="-9 -6 5"/>
    </vehicle>
    <vehicle id="481" depart="481.00">
        <route edges="0 3 6 9"/>
    </vehicle>
    <vehicle id="484" depart="484.00">
        <route edges="-7 8"/>
    </vehicle>
    <vehicle id="485" depart="485.00">
        <route edges="-3 -0"/>
    </vehicle>
    <vehicle id="494" depart="494.00">
        <route edges="-9 -6 -3"/>
    </vehicle>
    <vehicle id="495" depart="495.00">
        <route edges="-5 -3"/>
    </vehicle>
    <vehicle id="496" depart="496.00">
        <route edges="-6 -3 2"/>
    </vehicle>
    <vehicle id="501" depart="501.00">
        <route edges="-7 9"/>
    </vehicle>
    <vehicle id="502" depart="502.00">
        <route edges="-5 -3 2"/>
    </vehicle>
    <vehicle id="503" depart="503.00">
        <route edges="-3"/>
    </vehicle>
    <vehicle id="504" depart="504.00">
        <route edges="3"/>
    </vehicle>
    <vehicle id="505" depart="505.00">
        <route edges="-8 -6 5"/>
    </vehicle>
    <vehicle id="506" depart="506.00">
        <route edges="-8 -6 -3 -0"/>
    </vehicle>
    <vehicle id="509" depart="509.00">
        <route edges="-1 3 6 7"/>
    </vehicle>
    <vehicle id="516" depart="516.00">
        <route edges="-8 -6 -3 -0"/>
    </vehicle>
    <vehicle id="517" depart="517.00">
        <route edges="-1 3 6 7"/>
    </vehicle>
    <vehicle id="519" depart="519.00">
        <route edges="-3 -0"/>
    </vehicle>
    <vehicle id="522" depart="522.00">
        <route edges="0 3 4"/>
    </vehicle>
    <vehicle id="528" depart="528.00">
        <route edges="-6 -3 2"/>
    </vehicle>
    <vehicle id="534" depart="534.00">
        <route edges="-4 6 9"/>
    </vehicle>
    <vehicle id="536" depart="536.00">
        <route edges="-8 -6 -3"/>
    </vehicle>
    <vehicle id="537" depart="537.00">
        <route edges="-9 8"/>
    </vehicle>
    <vehicle id="538" depart="538.00">
        <route edges="-8 7"/>
    </vehicle>
    <vehicle id="539" depart="539.00">
        <route edges="-9 -6"/>
    </vehicle>
    <vehicle id="540" depart="540.00">
        <route edges="-6"/>
    </vehicle>
    <vehicle id="542" depart="542.00">
        <route edges="-5 -3"/>
    </vehicle>
    <vehicle id="543" depart="543.00">
        <route edges="-6 5"/>
    </vehicle>
    <vehicle id="544" depart="544.00">
        <route edges="-5 -3"/>
    </vehicle>
    <vehicle id="548" depart="548.00">
        <route edges="0 3 4"/>
    </vehicle>
    <vehicle id="554" depart="554.00">
        <route edges="-8 -6 -3 2"/>
    </vehicle>
    <vehicle id="556" depart="556.00">
        <route edges="-8 -6"/>
    </vehicle>
    <vehicle id="560" depart="560.00">
        <route edges="3 6 9"/>
    </vehicle>
    <vehicle id="562" depart="562.00">
        <route edges="-8 -6 -3 -0"/>
    </vehicle>
    <vehicle id="563" depart="563.00">
        <route edges="6 7"/>
    </vehicle>
    <vehicle id="566" depart="566.00">
        <route edges="-5 -3 -0"/>
    </vehicle>
    <vehicle id="567" depart="567.00">
        <route edges="3 4"/>
    </vehicle>
    <vehicle id="568" depart="568.00">
        <route edges="-5 -3"/>
    </vehicle>
    <vehicle id="569" depart="569.00">
        <route edges="-8 -6 -3 -0"/>
    </vehicle>
    <vehicle id="570" depart="570.00">
        <route edges="-9 -6"/>
    </vehicle>
    <vehicle id="571" depart="571.00">
        <route edges="-6 -3 2"/>
    </vehicle>
    <vehicle id="573" depart="573.00">
        <route edges="0 3 4"/>
    </vehicle>
    <vehicle id="574" depart="574.00">
        <route edges="-2 -0"/>
    </vehicle>
    <vehicle id="582" depart="582.00">
        <route edges="-9 -6 -3 -0"/>
    </vehicle>
    <vehicle id="585" depart="585.00">
        <route edges="-3"/>
    </vehicle>
    <vehicle id="587" depart="587.00">
        <route edges="-1 3 6"/>
    </vehicle>
    <vehicle id="588" depart="588.00">
        <route edges="-3 2"/>
    </vehicle>
    <vehicle id="590" depart="590.00">
        <route edges="3 6 7"/>
    </vehicle>
    <vehicle id="596" depart="596.00">
        <route edges="-2 -0"/>
    </vehicle>
    <vehicle id="597" depart="597.00">
        <route edges="-4 6 7"/>
    </vehicle>
    <vehicle id="598" depart="598.00">
        <route edges="-8 7"/>
    </vehicle>
    <vehicle id="610" depart="610.00">
        <route edges="-8 7"/>
    </vehicle>
    <vehicle id="611" depart="611.00">
        <route edges="-8 -6"/>
    </vehicle>
    <vehicle id="612" depart="612.00">
        <route edges="0 3"/>
    </vehicle>
    <vehicle id="613" depart="613.00">
        <route edges="0 3 6 7"/>
    </vehicle>
    <vehicle id="617" depart="617.00">
        <route edges="-8 -6 -3"/>
    </vehicle>
    <vehicle id="618" depart="618.00">
        <route edges="-1 3"/>
    </vehicle>
    <vehicle id="620" depart="620.00">
        <route edges="-1 3 4"/>
    </vehicle>
    <vehicle id="622" depart="622.00">
        <route edges="-1 3 6 7"/>
    </vehicle>
    <vehicle id="627" depart="627.00">
        <route edges="3"/>
    </vehicle>
    <vehicle id="630" depart="630.00">
        <route edges="-2 -0"/>
    </vehicle>
    <vehicle id="642" depart="642.00">
        <route edges="-9 -6 5"/>
    </vehicle>
    <vehicle id="644" depart="644.00">
        <route edges="-5 4"/>
    </vehicle>
    <vehicle id="646" depart="646.00">
        <route edges="6"/>
    </vehicle>
    <vehicle id="650" depart="650.00">
        <route edges="0 3 6"/>
    </vehicle>
    <vehicle id="651" depart="651.00">
        <route edges="0 3 6"/>
    </vehicle>
    <vehicle id="654" depart="654.00">
        <route edges="-5 -3 2"/>
    </vehicle>
    <vehicle id="657" depart="657.00">
        <route edges="-3"/>
    </vehicle>
    <vehicle id="661" depart="661.00">
        <route edges="-1 2"/>
    </vehicle>
    <vehicle id="663" depart="663.00">
        <route edges="-5 -3"/>
    </vehicle>
    <vehicle id="664" depart="664.00">
        <route edges="0 3 6 7"/>
    </vehicle>
    <vehicle id="666" depart="666.00">
        <route edges="-6 -3 2"/>
    </vehicle>
    <vehicle id="667" depart="667.00">
        <route edges="-9 -6"/>
    </vehicle>
    <vehicle id="671" depart="671.00">
        <route edges="0 3"/>
    </vehicle>
    <vehicle id="673" depart="673.00">
        <route edges="6 9"/>
    </vehicle>
    <vehicle id="675" depart="675.00">
        <route edges="-5 4"/>
    </vehicle>
    <vehicle id="676" depart="676.00">
        <route edges="6 7"/>
    </vehicle>
    <vehicle id="678" depart="678.00">
        <route edges="-4 5"/>
    </vehicle>
    <vehicle id="679" depart="679.00">
        <route edges="3 4"/>
    </vehicle>
    <vehicle id="682" depart="682.00">
        <route edges="0 1"/>
    </vehicle>
    <vehicle id="686" depart="686.00">
        <route edges="-5 -3 -0"/>
    </vehicle>
    <vehicle id="687" depart="687.00">
        <route edges="-1 3 4"/>
    </vehicle>
    <vehicle id="689" depart="689.00">
        <route edges="-5 -3 -0"/>
    </vehicle>
    <vehicle id="691" depart="691.00">
        <route edges="-8 7"/>
    </vehicle>
    <vehicle id="692" depart="692.00">
        <route edges="-2 1"/>
    </vehicle>
    <vehicle id="693" depart="693.00">
        <route edges="0 3 6"/>
    </vehicle>
    <vehicle id="695" depart="695.00">
        <route edges="-6 -3 -0"/>
    </vehicle>
    <vehicle id="697" depart="697.00">
        <route edges="3 4"/>
    </vehicle>
    <vehicle id="699" depart="699.00">
        <route edges="-2 1"/>
    </vehicle>
    <vehicle id="702" depart="702.00">
        <route edges="-6 -3"/>
    </vehicle>
    <vehicle id="704" depart="704.00">
        <route edges="-1 3 4"/>
    </vehicle>
    <vehicle id="705" depart="705.00">
        <route edges="-3"/>
    </vehicle>
    <vehicle id="706" depart="706.00">
        <route edges="-6 5"/>
    </vehicle>
    <vehicle id="707" depart="707.00">
        <route edges="-3 2"/>
    </vehicle>
    <vehicle id="708" depart="708.00">
        <route edges="-8 -6 -3"/>
    </vehicle>
    <vehicle id="716" depart="716.00">
        <route edges="-9 -6 5"/>
    </vehicle>
    <vehicle id="717" depart="717.00">
        <route edges="0 3 6"/>
    </vehicle>
    <vehicle id="722" depart="722.00">
        <route edges="-8 7"/>
    </vehicle>
    <vehicle id="723" depart="723.00">
        <route edges="-1 3 6 7"/>
    </vehicle>
    <vehicle id="726" depart="726.00">
        <route edges="-1 3 6 9"/>
    </vehicle>
    <vehicle id="727" depart="727.00">
        <route edges="-7 9"/>
    </vehicle>
    <vehicle id="733" depart="733.00">
        <route edges="3 6"/>
    </vehicle>
    <vehicle id="738" depart="738.00">
        <route edges="-9 -6 -3 -0"/>
    </vehicle>
    <vehicle id="739" depart="739.00">
        <route edges="-8 7"/>
    </vehicle>
    <vehicle id="742" depart="742.00">
        <route edges="-4 5"/>
    </vehicle>
    <vehicle id="744" depart="744.00">
        <route edges="-5 -3 -0"/>
    </vehicle>
    <vehicle id="747" depart="747.00">
        <route edges="6 9"/>
    </vehicle>
    <vehicle id="753" depart="753.00">
        <route edges="-1 3 6 7"/>
    </vehicle>
    <vehicle id="754" depart="754.00">
        <route edges="-5 -3 2"/>
    </vehicle>
    <vehicle id="760" depart="760.00">
        <route edges="-3"/>
    </vehicle>
    <vehicle id="762" depart="762.00">
        <route edges="-5 4"/>
    </vehicle>
    <vehicle id="766" depart="766.00">
        <route edges="-6 -3"/>
    </vehicle>
    <vehicle id="767" depart="767.00">
        <route edges="3"/>
    </vehicle>
    <vehicle id="768" depart="768.00">
        <route edges="3"/>
    </vehicle>
    <vehicle id="771" depart="771.00">
        <route edges="-5 -3 -0"/>
    </vehicle>
    <vehicle id="772" depart="772.00">
        <route edges="-7 8"/>
    </vehicle>
    <vehicle id="773" depart="773.00">
        <route edges="3 6"/>
    </vehicle>
    <vehicle id="775" depart="775.00">
        <route edges="0 3 4"/>
    </vehicle>
    <vehicle id="778" depart="778.00">
        <route edges="-1 3 4"/>
    </vehicle>
    <vehicle id="781" depart="781.00">
        <route edges="-2 1"/>
    </vehicle>
    <vehicle id="782" depart="782.00">
        <route edges="6"/>
    </vehicle>
    <vehicle id="793" depart="793.00">
        <route edges="-4 6"/>
    </vehicle>
    <vehicle id="796" depart="796.00">
        <route edges="-4 5"/>
    </vehicle>
    <vehicle id="806" depart="806.00">
        <route edges="-8 7"/>
    </vehicle>
    <vehicle id="808" depart="808.00">
        <route edges="-6 5"/>
    </vehicle>
    <vehicle id="809" depart="809.00">
        <route edges="-4 6 9"/>
    </vehicle>
    <vehicle id="815" depart="815.00">
        <route edges="-4 6"/>
    </vehicle>
    <vehicle id="816" depart="816.00">
        <route edges="-9 8"/>
    </vehicle>
    <vehicle id="818" depart="818.00">
        <route edges="-5 4"/>
    </vehicle>
    <vehicle id="821" depart="821.00">
        <route edges="-2 1"/>
    </vehicle>
    <vehicle id="824" depart="824.00">
        <route edges="-2 1"/>
    </vehicle>
    <vehicle id="826" depart="826.00">
        <route edges="0 3"/>
    </vehicle>
    <vehicle id="831" depart="831.00">
        <route edges="-5 -3 -0"/>
    </vehicle>
    <vehicle id="834" depart="834.00">
        <route edges="-7 8"/>
    </vehicle>
    <vehicle id="837" depart="837.00">
        <route edges="-5 -3 2"/>
    </vehicle>
    <vehicle id="841" depart="841.00">
        <route edges="-4 6 9"/>
    </vehicle>
    <vehicle id="842" depart="842.00">
        <route edges="-9 -6 -3"/>
    </vehicle>
    <vehicle id="845" depart="845.00">
        <route edges="6 7"/>
    </vehicle>
    <vehicle id="848" depart="848.00">
        <route edges="-2 1"/>
    </vehicle>
    <vehicle id="851" depart="851.00">
        <route edges="-4 5"/>
    </vehicle>
    <vehicle id="856" depart="856.00">
        <route edges="-4 6 7"/>
    </vehicle>
    <vehicle id="859" depart="859.00">
        <route edges="0 3 6"/>
    </vehicle>
    <vehicle id="860" depart="860.00">
        <route edges="-9 -6 -3 -0"/>
    </vehicle>
    <vehicle id="862" depart="862.00">
        <route edges="0 3 6 7"/>
    </vehicle>
    <vehicle id="864" depart="864.00">
        <route edges="-8 -6"/>
    </vehicle>
    <vehicle id="865" depart="865.00">
        <route edges="-8 -6 5"/>
    </vehicle>
    <vehicle id="867" depart="867.00">
        <route edges="-9 -6 -3 -0"/>
    </vehicle>
    <vehicle id="873" depart="873.00">
        <route edges="-9 -6 -3 -0"/>
    </vehicle>
    <vehicle id="875" depart="875.00">
        <route edges="-4 5"/>
    </vehicle>
    <vehicle id="878" depart="878.00">
        <route edges="-5 -3 2"/>
    </vehicle>
    <vehicle id="879" depart="879.00">
        <route edges="0 3 6"/>
    </vehicle>
    <vehicle id="881" depart="881.00">
        <route edges="-8 -6"/>
    </vehicle>
    <vehicle id="887" depart="887.00">
        <route edges="6 7"/>
    </vehicle>
    <vehicle id="889" depart="889.00">
        <route edges="-9 -6 -3 2"/>
    </vehicle>
    <vehicle id="890" depart="890.00">
        <route edges="6 7"/>
    </vehicle>
    <vehicle id="891" depart="891.00">
        <route edges="6 7"/>
    </vehicle>
    <vehicle id="893" depart="893.00">
        <route edges="-9 -6 -3 2"/>
    </vehicle>
    <vehicle id="895" depart="895.00">
        <route edges="-6"/>
    </vehicle>
    <vehicle id="896" depart="896.00">
        <route edges="-7 9"/>
    </vehicle>
    <vehicle id="897" depart="897.00">
        <route edges="-9 -6 -3"/>
    </vehicle>
    <vehicle id="898" depart="898.00">
        <route edges="-8 -6 5"/>
    </vehicle>
    <vehicle id="901" depart="901.00">
        <route edges="-1 2"/>
    </vehicle>
    <vehicle id="902" depart="902.00">
        <route edges="-9 -6 -3"/>
    </vehicle>
    <vehicle id="904" depart="904.00">
        <route edges="-7 9"/>
    </vehicle>
    <vehicle id="906" depart="906.00">
        <route edges="3"/>
    </vehicle>
    <vehicle id="908" depart="908.00">
        <route edges="-4 5"/>
    </vehicle>
    <vehicle id="914" depart="914.00">
        <route edges="6 9"/>
    </vehicle>
    <vehicle id="916" depart="916.00">
        <route edges="6 9"/>
    </vehicle>
    <vehicle id="918" depart="918.00">
        <route edges="-1 3 4"/>