<?xml version="1.0" encoding="UTF-8"?>

<!-- generated on 2023-03-16 13:23:27 by Eclipse SUMO netedit Version 1.15.0
<configuration xmlns:xsi="http://www.w3.org/2001/XMLSchema-instance" xsi:noNamespaceSchemaLocation="http://sumo.dlr.de/xsd/netconvertConfiguration.xsd">

    <input>
        <sumo-net-file value="C:\Users\young\OneDrive\Desktop\Berkeley\Capstone\SUMO\testing_1017.net.xml"/>
    </input>

    <output>
        <output-file value="C:\Users\young\OneDrive\Desktop\Berkeley\Capstone\TESTER_SY.net.xml"/>
    </output>

    <processing>
        <geometry.min-radius.fix.railways value="false"/>
        <geometry.max-grade.fix value="false"/>
        <offset.disable-normalization value="true"/>
        <lefthand value="0"/>
    </processing>

    <junctions>
        <no-turnarounds value="true"/>
        <junctions.corner-detail value="5"/>
        <junctions.limit-turn-speed value="5.50"/>
        <rectangular-lane-cut value="0"/>
    </junctions>

    <pedestrian>
        <walkingareas value="0"/>
    </pedestrian>

</configuration>
-->

<net version="1.9" junctionCornerDetail="5" limitTurnSpeed="5.50" xmlns:xsi="http://www.w3.org/2001/XMLSchema-instance" xsi:noNamespaceSchemaLocation="http://sumo.dlr.de/xsd/net_file.xsd">

    <location netOffset="0.00,0.00" convBoundary="0.00,-200.00,400.00,200.00" origBoundary="-10000000000.00,-10000000000.00,10000000000.00,10000000000.00" projParameter="!"/>

    <edge id=":J(01/01)_0" function="internal">
        <lane id=":J(01/01)_0_0" index="0" speed="13.89" length="14.40" shape="198.40,7.20 198.40,-7.20"/>
    </edge>
    <edge id=":J(01/01)_1" function="internal">
        <lane id=":J(01/01)_1_0" index="0" speed="13.89" length="14.40" shape="207.20,1.60 192.80,1.60"/>
    </edge>
    <edge id=":J(01/01)_2" function="internal">
        <lane id=":J(01/01)_2_0" index="0" speed="13.89" length="14.40" shape="201.60,-7.20 201.60,7.20"/>
    </edge>
    <edge id=":J(01/01)_3" function="internal">
        <lane id=":J(01/01)_3_0" index="0" speed="13.89" length="14.40" shape="192.80,-1.60 207.20,-1.60"/>
    </edge>

    <edge id="J(00/01)E" from="J(00/01)" to="J(01/01)" priority="-1" length="200.00">
        <lane id="J(00/01)E_0" index="0" speed="13.89" length="200.00" shape="0.00,-1.60 192.80,-1.60"/>
    </edge>
    <edge id="J(01/00)N" from="J(01/00)" to="J(01/01)" priority="-1" length="200.00">
        <lane id="J(01/00)N_0" index="0" speed="13.89" length="200.00" shape="201.60,-200.00 201.60,-7.20"/>
    </edge>
    <edge id="J(01/01)E" from="J(01/01)" to="J(02/01)" priority="-1" length="200.00">
        <lane id="J(01/01)E_0" index="0" speed="13.89" length="200.00" shape="207.20,-1.60 400.00,-1.60"/>
    </edge>
    <edge id="J(01/01)N" from="J(01/01)" to="J(01/02)" priority="-1" length="200.00">
        <lane id="J(01/01)N_0" index="0" speed="13.89" length="200.00" shape="201.60,7.20 201.60,200.00"/>
    </edge>
    <edge id="J(01/01)S" from="J(01/01)" to="J(01/00)" priority="-1" length="200.00">
        <lane id="J(01/01)S_0" index="0" speed="13.89" length="200.00" shape="198.40,-7.20 198.40,-200.00"/>
    </edge>
    <edge id="J(01/01)W" from="J(01/01)" to="J(00/01)" priority="-1" length="200.00">
        <lane id="J(01/01)W_0" index="0" speed="13.89" length="200.00" shape="192.80,1.60 0.00,1.60"/>
    </edge>
    <edge id="J(01/02)S" from="J(01/02)" to="J(01/01)" priority="-1" length="200.00">
        <lane id="J(01/02)S_0" index="0" speed="13.89" length="200.00" shape="198.40,200.00 198.40,7.20"/>
    </edge>
    <edge id="J(02/01)W" from="J(02/01)" to="J(01/01)" priority="-1" length="200.00">
        <lane id="J(02/01)W_0" index="0" speed="13.89" length="200.00" shape="400.00,1.60 207.20,1.60"/>
    </edge>

    <tlLogic id="J(01/01)" type="static" programID="0" offset="0">
        <phase duration="42" state="GGgrrrGGgrrr"/>
        <phase duration="3"  state="yyyrrryyyrrr"/>
        <phase duration="42" state="rrrGGgrrrGGg"/>
        <phase duration="3"  state="rrryyyrrryyy"/>
    </tlLogic>

    <junction id="J(00/01)" type="dead_end" x="0.00" y="0.00" incLanes="J(01/01)W_0" intLanes="" shape="0.00,0.00 0.00,3.20 0.00,0.00"/>
    <junction id="J(01/00)" type="dead_end" x="200.00" y="-200.00" incLanes="J(01/01)S_0" intLanes="" shape="200.00,-200.00 196.80,-200.00 200.00,-200.00"/>
    <junction id="J(01/01)" type="traffic_light" x="200.00" y="0.00" incLanes="J(01/02)S_0 J(02/01)W_0 J(01/00)N_0 J(00/01)E_0" intLanes=":J(01/01)_0_0 :J(01/01)_1_0 :J(01/01)_2_0 :J(01/01)_3_0" shape="196.80,7.20 203.20,7.20 203.64,4.98 204.20,4.20 204.98,3.64 205.98,3.31 207.20,3.20 207.20,-3.20 204.98,-3.64 204.20,-4.20 203.64,-4.98 203.31,-5.98 203.20,-7.20 196.80,-7.20 196.36,-4.98 195.80,-4.20 195.02,-3.64 194.02,-3.31 192.80,-3.20 192.80,3.20 195.02,3.64 195.80,4.20 196.36,4.98 196.69,5.98">
        <request index="0" response="0000" foes="1010" cont="0"/>
        <request index="1" response="0101" foes="0101" cont="0"/>
        <request index="2" response="0000" foes="1010" cont="0"/>
        <request index="3" response="0101" foes="0101" cont="0"/>
    </junction>
    <junction id="J(01/02)" type="dead_end" x="200.00" y="200.00" incLanes="J(01/01)N_0" intLanes="" shape="200.00,200.00 203.20,200.00 200.00,200.00"/>
    <junction id="J(02/01)" type="dead_end" x="400.00" y="0.00" incLanes="J(01/01)E_0" intLanes="" shape="400.00,0.00 400.00,-3.20 400.00,0.00"/>

    <connection from="J(00/01)E" to="J(01/01)E" fromLane="0" toLane="0" via=":J(01/01)_3_0" tl="J(01/01)" linkIndex="10" dir="s" state="o"/>
    <connection from="J(01/00)N" to="J(01/01)N" fromLane="0" toLane="0" via=":J(01/01)_2_0" tl="J(01/01)" linkIndex="7" dir="s" state="O"/>
    <connection from="J(01/02)S" to="J(01/01)S" fromLane="0" toLane="0" via=":J(01/01)_0_0" tl="J(01/01)" linkIndex="1" dir="s" state="O"/>
    <connection from="J(02/01)W" to="J(01/01)W" fromLane="0" toLane="0" via=":J(01/01)_1_0" tl="J(01/01)" linkIndex="4" dir="s" state="o"/>

    <connection from=":J(01/01)_0" to="J(01/01)S" fromLane="0" toLane="0" dir="s" state="M"/>
    <connection from=":J(01/01)_1" to="J(01/01)W" fromLane="0" toLane="0" dir="s" state="M"/>
    <connection from=":J(01/01)_2" to="J(01/01)N" fromLane="0" toLane="0" dir="s" state="M"/>
    <connection from=":J(01/01)_3" to="J(01/01)E" fromLane="0" toLane="0" dir="s" state="M"/>

</net>
